<?xml version="1.0" encoding="UTF-8"?>

<!-- generated on 2026-05-19 16:02:51 by Eclipse SUMO netconvert Version 1.24.0
<netconvertConfiguration xmlns:xsi="http://www.w3.org/2001/XMLSchema-instance" xsi:noNamespaceSchemaLocation="http://sumo.dlr.de/xsd/netconvertConfiguration.xsd">

    <input>
        <osm-files value="Guanajuato.osm"/>
    </input>

    <output>
        <output-file value="guanajuato_v2v.net.xml"/>
    </output>

    <projection>
        <proj.utm value="true"/>
    </projection>

    <processing>
        <geometry.remove value="true"/>
    </processing>

    <tls_building>
        <tls.guess-signals value="true"/>
    </tls_building>

    <ramp_guessing>
        <ramps.guess value="true"/>
    </ramp_guessing>

    <junctions>
        <junctions.join value="true"/>
    </junctions>

    <formats>
        <osm.elevation value="true"/>
    </formats>

</netconvertConfiguration>
-->

<net version="1.20" junctionCornerDetail="5" limitTurnSpeed="5.50" xmlns:xsi="http://www.w3.org/2001/XMLSchema-instance" xsi:noNamespaceSchemaLocation="http://sumo.dlr.de/xsd/net_file.xsd">

    <location netOffset="-264368.37,-2323834.51" convBoundary="0.00,0.00,2883.15,3550.67" origBoundary="-101.266981,21.000480,-101.239086,21.032411" projParameter="+proj=utm +zone=14 +ellps=WGS84 +datum=WGS84 +units=m +no_defs"/>

    <type id="highway.footway" priority="1" numLanes="1" speed="2.78" allow="pedestrian" oneway="1" width="2.00"/>
    <type id="highway.living_street" priority="2" numLanes="1" speed="2.78" disallow="tram rail_urban rail rail_electric rail_fast ship container cable_car subway aircraft wheelchair scooter drone" oneway="0"/>
    <type id="highway.path" priority="1" numLanes="1" speed="5.56" allow="pedestrian bicycle" oneway="0" width="2.00"/>
    <type id="highway.pedestrian" priority="1" numLanes="1" speed="2.78" allow="pedestrian" oneway="1" width="2.00"/>
    <type id="highway.primary" priority="12" numLanes="2" speed="27.78" disallow="tram rail_urban rail rail_electric rail_fast ship container cable_car subway aircraft wheelchair scooter drone" oneway="0"/>
    <type id="highway.primary_link" priority="7" numLanes="1" speed="22.22" disallow="tram rail_urban rail rail_electric rail_fast ship container cable_car subway aircraft wheelchair scooter drone" oneway="0"/>
    <type id="highway.residential" priority="3" numLanes="1" speed="13.89" disallow="tram rail_urban rail rail_electric rail_fast ship container cable_car subway aircraft wheelchair scooter drone" oneway="0"/>
    <type id="highway.service" priority="1" numLanes="1" speed="5.56" allow="pedestrian delivery bicycle" oneway="0"/>
    <type id="highway.steps" priority="1" numLanes="1" speed="1.39" allow="pedestrian" oneway="1" width="2.00"/>
    <type id="highway.tertiary" priority="10" numLanes="1" speed="22.22" disallow="tram rail_urban rail rail_electric rail_fast ship container cable_car subway aircraft wheelchair scooter drone" oneway="0"/>
    <type id="highway.unclassified" priority="4" numLanes="1" speed="13.89" disallow="tram rail_urban rail rail_electric rail_fast ship container cable_car subway aircraft wheelchair scooter drone" oneway="0"/>

    <edge id=":11877238217_0" function="internal">
        <lane id=":11877238217_0_0" index="0" disallow="tram rail_urban rail rail_electric rail_fast ship container cable_car subway aircraft wheelchair scooter drone" speed="13.89" length="5.70" shape="859.04,2082.08 860.08,2083.40 860.70,2084.38 861.25,2085.40 862.10,2086.87"/>
    </edge>
    <edge id=":11877238230_0" function="internal">
        <lane id=":11877238230_0_0" index="0" allow="pedestrian delivery bicycle" speed="3.65" length="4.67" shape="763.01,2075.25 764.45,2075.19 765.25,2075.59 765.40,2076.48 764.91,2077.83"/>
    </edge>
    <edge id=":11877353776_0" function="internal">
        <lane id=":11877353776_0_0" index="0" disallow="tram rail_urban rail rail_electric rail_fast ship container cable_car subway aircraft wheelchair scooter drone" speed="13.89" length="5.17" shape="897.31,1973.11 892.98,1975.94"/>
    </edge>
    <edge id=":11877353776_1" function="internal">
        <lane id=":11877353776_1_0" index="0" allow="pedestrian delivery bicycle" speed="5.00" length="4.38" shape="893.08,1971.93 893.62,1973.30 893.78,1974.42 893.57,1975.30 892.98,1975.94"/>
    </edge>
    <edge id=":11877353778_0" function="internal">
        <lane id=":11877353778_0_0" index="0" disallow="tram rail_urban rail rail_electric rail_fast ship container cable_car subway aircraft wheelchair scooter drone" speed="13.89" length="7.56" shape="892.82,1976.05 890.93,1977.27 889.60,1978.04 888.24,1978.75 886.26,1979.80"/>
    </edge>
    <edge id=":11877353778_1" function="internal">
        <lane id=":11877353778_1_0" index="0" disallow="tram rail_urban rail rail_electric rail_fast ship container cable_car subway aircraft wheelchair scooter drone" speed="8.18" length="8.41" shape="892.82,1976.05 891.18,1976.80 889.30,1977.01 887.15,1976.70 884.75,1975.86"/>
    </edge>
    <edge id=":11877353779_0" function="internal">
        <lane id=":11877353779_0_0" index="0" allow="pedestrian delivery bicycle" speed="5.56" length="6.14" shape="891.92,1964.71 891.63,1966.51 891.53,1967.78 891.77,1969.01 892.47,1970.66"/>
    </edge>
    <edge id=":11877353803_0" function="internal">
        <lane id=":11877353803_0_0" index="0" disallow="tram rail_urban rail rail_electric rail_fast ship container cable_car subway aircraft wheelchair scooter drone" speed="13.89" length="5.65" shape="867.06,1992.33 862.16,1995.15"/>
    </edge>
    <edge id=":11877353803_1" function="internal">
        <lane id=":11877353803_1_0" index="0" disallow="tram rail_urban rail rail_electric rail_fast ship container cable_car subway aircraft wheelchair scooter drone" speed="13.89" length="5.65" shape="860.57,1992.38 865.46,1989.56"/>
    </edge>
    <edge id=":11877353805_0" function="internal">
        <lane id=":11877353805_0_0" index="0" disallow="tram rail_urban rail rail_electric rail_fast ship container cable_car subway aircraft wheelchair scooter drone" speed="13.89" length="8.55" shape="803.58,2053.15 811.94,2054.94"/>
    </edge>
    <edge id=":11877353807_0" function="internal">
        <lane id=":11877353807_0_0" index="0" disallow="tram rail_urban rail rail_electric rail_fast ship container cable_car subway aircraft wheelchair scooter drone" speed="13.89" length="5.03" shape="804.15,2061.94 799.94,2059.19"/>
    </edge>
    <edge id=":11877447561_0" function="internal">
        <lane id=":11877447561_0_0" index="0" disallow="tram rail_urban rail rail_electric rail_fast ship container cable_car subway aircraft wheelchair scooter drone" speed="13.89" length="5.55" shape="876.52,1978.21 878.03,1972.87"/>
    </edge>
    <edge id=":11877477396_0" function="internal">
        <lane id=":11877477396_0_0" index="0" disallow="tram rail_urban rail rail_electric rail_fast ship container cable_car subway aircraft wheelchair scooter drone" speed="27.78" length="5.82" shape="363.42,1992.77 369.00,1994.43"/>
        <lane id=":11877477396_0_1" index="1" disallow="tram rail_urban rail rail_electric rail_fast ship container cable_car subway aircraft wheelchair scooter drone" speed="27.78" length="5.82" shape="362.51,1995.84 368.08,1997.50"/>
    </edge>
    <edge id=":11877477398_0" function="internal">
        <lane id=":11877477398_0_0" index="0" disallow="tram rail_urban rail rail_electric rail_fast ship container cable_car subway aircraft wheelchair scooter drone" speed="27.78" length="6.33" shape="361.12,2007.93 357.06,2003.07"/>
        <lane id=":11877477398_0_1" index="1" disallow="tram rail_urban rail rail_electric rail_fast ship container cable_car subway aircraft wheelchair scooter drone" speed="27.78" length="6.33" shape="363.58,2005.87 359.51,2001.02"/>
    </edge>
    <edge id=":11877477400_0" function="internal">
        <lane id=":11877477400_0_0" index="0" disallow="tram rail_urban rail rail_electric rail_fast ship container cable_car subway aircraft wheelchair scooter drone" speed="22.22" length="5.08" shape="356.37,2011.72 354.21,2007.12"/>
    </edge>
    <edge id=":11877477462_0" function="internal">
        <lane id=":11877477462_0_0" index="0" disallow="tram rail_urban rail rail_electric rail_fast ship container cable_car subway aircraft wheelchair scooter drone" speed="3.65" length="4.67" shape="768.85,1272.38 769.55,1271.12 770.31,1270.65 771.14,1270.98 772.04,1272.11"/>
    </edge>
    <edge id=":11883828234_0" function="internal">
        <lane id=":11883828234_0_0" index="0" disallow="tram rail_urban rail rail_electric rail_fast ship container cable_car subway aircraft wheelchair scooter drone" speed="13.89" length="6.14" shape="1357.37,1833.71 1351.67,1835.98"/>
    </edge>
    <edge id=":11884217425_0" function="internal">
        <lane id=":11884217425_0_0" index="0" allow="pedestrian delivery bicycle" speed="3.65" length="4.67" shape="933.86,2047.97 932.45,2047.68 931.78,2047.09 931.84,2046.20 932.65,2045.01"/>
    </edge>
    <edge id=":13053303592_0" function="internal">
        <lane id=":13053303592_0_0" index="0" disallow="tram rail_urban rail rail_electric rail_fast ship container cable_car subway aircraft wheelchair scooter drone" speed="7.34" length="1.84" shape="880.29,1972.49 879.67,1971.29 879.53,1970.82"/>
    </edge>
    <edge id=":13053303592_2" function="internal">
        <lane id=":13053303592_2_0" index="0" disallow="tram rail_urban rail rail_electric rail_fast ship container cable_car subway aircraft wheelchair scooter drone" speed="7.34" length="3.10" shape="879.53,1970.82 879.32,1970.11 879.23,1968.93 879.40,1967.76"/>
    </edge>
    <edge id=":13053303592_1" function="internal">
        <lane id=":13053303592_1_0" index="0" disallow="tram rail_urban rail rail_electric rail_fast ship container cable_car subway aircraft wheelchair scooter drone" speed="13.89" length="5.08" shape="878.08,1972.67 879.40,1967.76"/>
    </edge>
    <edge id=":13053303593_0" function="internal">
        <lane id=":13053303593_0_0" index="0" disallow="tram rail_urban rail rail_electric rail_fast ship container cable_car subway aircraft wheelchair scooter drone" speed="7.05" length="2.79" shape="882.15,1974.72 881.45,1974.33 881.08,1973.92 880.80,1973.39 880.40,1972.66"/>
    </edge>
    <edge id=":1403885149_0" function="internal">
        <lane id=":1403885149_0_0" index="0" disallow="tram rail_urban rail rail_electric rail_fast ship container cable_car subway aircraft wheelchair scooter drone" speed="3.65" length="4.67" shape="96.71,2382.58 95.27,2382.51 94.51,2382.03 94.45,2381.13 95.07,2379.83"/>
    </edge>
    <edge id=":1817818908_0" function="internal">
        <lane id=":1817818908_0_0" index="0" disallow="tram rail_urban rail rail_electric rail_fast ship container cable_car subway aircraft wheelchair scooter drone" speed="3.65" length="4.67" shape="950.84,3339.79 950.53,3338.38 950.81,3337.53 951.65,3337.23 953.07,3337.50"/>
    </edge>
    <edge id=":1843014623_0" function="internal">
        <lane id=":1843014623_0_0" index="0" disallow="tram rail_urban rail rail_electric rail_fast ship container cable_car subway aircraft wheelchair scooter drone" speed="22.22" length="13.67" shape="555.55,1541.42 548.67,1529.61"/>
    </edge>
    <edge id=":1843014623_1" function="internal">
        <lane id=":1843014623_1_0" index="0" disallow="tram rail_urban rail rail_electric rail_fast ship container cable_car subway aircraft wheelchair scooter drone" speed="8.01" length="3.76" shape="555.55,1541.42 554.29,1537.88"/>
    </edge>
    <edge id=":1843014623_6" function="internal">
        <lane id=":1843014623_6_0" index="0" disallow="tram rail_urban rail rail_electric rail_fast ship container cable_car subway aircraft wheelchair scooter drone" speed="8.01" length="10.04" shape="554.29,1537.88 554.43,1534.75 555.99,1532.02 558.95,1529.70"/>
    </edge>
    <edge id=":1843014623_2" function="internal">
        <lane id=":1843014623_2_0" index="0" disallow="tram rail_urban rail rail_electric rail_fast ship container cable_car subway aircraft wheelchair scooter drone" speed="6.51" length="8.78" shape="560.55,1532.48 558.66,1533.95 557.67,1535.69 557.58,1537.68 558.39,1539.93"/>
    </edge>
    <edge id=":1843014623_3" function="internal">
        <lane id=":1843014623_3_0" index="0" disallow="tram rail_urban rail rail_electric rail_fast ship container cable_car subway aircraft wheelchair scooter drone" speed="8.03" length="13.79" shape="560.55,1532.48 557.06,1533.88 553.92,1533.87 551.12,1532.45 548.67,1529.61"/>
    </edge>
    <edge id=":1843014623_4" function="internal">
        <lane id=":1843014623_4_0" index="0" disallow="tram rail_urban rail rail_electric rail_fast ship container cable_car subway aircraft wheelchair scooter drone" speed="6.54" length="8.80" shape="551.37,1527.88 552.93,1529.69 554.71,1530.60 556.72,1530.60 558.95,1529.70"/>
    </edge>
    <edge id=":1843014623_5" function="internal">
        <lane id=":1843014623_5_0" index="0" disallow="tram rail_urban rail rail_electric rail_fast ship container cable_car subway aircraft wheelchair scooter drone" speed="22.22" length="13.95" shape="551.37,1527.88 558.39,1539.93"/>
    </edge>
    <edge id=":1955881619_0" function="internal">
        <lane id=":1955881619_0_0" index="0" disallow="tram rail_urban rail rail_electric rail_fast ship container cable_car subway aircraft wheelchair scooter drone" speed="22.22" length="4.40" shape="593.83,1702.55 592.74,1703.14 591.83,1703.18 590.87,1703.12 589.62,1703.42"/>
    </edge>
    <edge id=":1955881619_1" function="internal">
        <lane id=":1955881619_1_0" index="0" disallow="tram rail_urban rail rail_electric rail_fast ship container cable_car subway aircraft wheelchair scooter drone" speed="22.22" length="3.49" shape="588.36,1700.48 591.82,1700.06"/>
    </edge>
    <edge id=":1955881680_0" function="internal">
        <lane id=":1955881680_0_0" index="0" disallow="tram rail_urban rail rail_electric rail_fast ship container cable_car subway aircraft wheelchair scooter drone" speed="3.65" length="4.67" shape="206.42,1349.11 206.16,1347.69 206.45,1346.85 207.30,1346.58 208.71,1346.88"/>
    </edge>
    <edge id=":1955881712_0" function="internal">
        <lane id=":1955881712_0_0" index="0" disallow="tram rail_urban rail rail_electric rail_fast ship container cable_car subway aircraft wheelchair scooter drone" speed="6.27" length="9.04" shape="432.86,1556.91 430.38,1556.45 428.44,1556.93 427.03,1558.35 426.15,1560.71"/>
    </edge>
    <edge id=":1955881712_1" function="internal">
        <lane id=":1955881712_1_0" index="0" disallow="tram rail_urban rail rail_electric rail_fast ship container cable_car subway aircraft wheelchair scooter drone" speed="13.89" length="14.66" shape="432.86,1556.91 429.34,1555.79 425.83,1554.83 422.29,1554.02 418.65,1553.36"/>
    </edge>
    <edge id=":1955881712_2" function="internal">
        <lane id=":1955881712_2_0" index="0" disallow="tram rail_urban rail rail_electric rail_fast ship container cable_car subway aircraft wheelchair scooter drone" speed="8.25" length="14.45" shape="432.86,1556.91 429.23,1555.11 426.96,1552.66 426.04,1549.54 426.49,1545.76"/>
    </edge>
    <edge id=":1955881712_3" function="internal">
        <lane id=":1955881712_3_0" index="0" disallow="tram rail_urban rail rail_electric rail_fast ship container cable_car subway aircraft wheelchair scooter drone" speed="3.65" length="4.67" shape="432.86,1556.91 431.98,1555.77 431.86,1554.88 432.50,1554.25 433.89,1553.88"/>
    </edge>
    <edge id=":1955881712_4" function="internal">
        <lane id=":1955881712_4_0" index="0" disallow="tram rail_urban rail rail_electric rail_fast ship container cable_car subway aircraft wheelchair scooter drone" speed="6.81" length="9.51" shape="429.57,1546.61 429.30,1549.05 429.93,1551.08 431.46,1552.69 433.89,1553.88"/>
    </edge>
    <edge id=":1955881712_5" function="internal">
        <lane id=":1955881712_5_0" index="0" disallow="tram rail_urban rail rail_electric rail_fast ship container cable_car subway aircraft wheelchair scooter drone" speed="13.89" length="14.51" shape="429.57,1546.61 426.15,1560.71"/>
    </edge>
    <edge id=":1955881712_6" function="internal">
        <lane id=":1955881712_6_0" index="0" disallow="tram rail_urban rail rail_electric rail_fast ship container cable_car subway aircraft wheelchair scooter drone" speed="8.36" length="3.79" shape="429.57,1546.61 428.06,1550.08"/>
    </edge>
    <edge id=":1955881712_7" function="internal">
        <lane id=":1955881712_7_0" index="0" disallow="tram rail_urban rail rail_electric rail_fast ship container cable_car subway aircraft wheelchair scooter drone" speed="3.65" length="1.44" shape="429.57,1546.61 428.49,1547.55"/>
    </edge>
    <edge id=":1955881712_16" function="internal">
        <lane id=":1955881712_16_0" index="0" disallow="tram rail_urban rail rail_electric rail_fast ship container cable_car subway aircraft wheelchair scooter drone" speed="8.36" length="10.52" shape="428.06,1550.08 425.73,1552.37 422.59,1553.46 418.65,1553.36"/>
    </edge>
    <edge id=":1955881712_17" function="internal">
        <lane id=":1955881712_17_0" index="0" disallow="tram rail_urban rail rail_electric rail_fast ship container cable_car subway aircraft wheelchair scooter drone" speed="3.65" length="3.23" shape="428.49,1547.55 427.61,1547.73 426.94,1547.13 426.49,1545.76"/>
    </edge>
    <edge id=":1955881712_8" function="internal">
        <lane id=":1955881712_8_0" index="0" disallow="tram rail_urban rail rail_electric rail_fast ship container cable_car subway aircraft wheelchair scooter drone" speed="6.94" length="9.55" shape="419.16,1550.20 421.81,1550.27 423.92,1549.56 425.48,1548.06 426.49,1545.76"/>
    </edge>
    <edge id=":1955881712_9" function="internal">
        <lane id=":1955881712_9_0" index="0" disallow="tram rail_urban rail rail_electric rail_fast ship container cable_car subway aircraft wheelchair scooter drone" speed="13.89" length="15.20" shape="419.16,1550.20 422.88,1550.88 426.60,1551.73 430.29,1552.74 433.89,1553.88"/>
    </edge>
    <edge id=":1955881712_10" function="internal">
        <lane id=":1955881712_10_0" index="0" disallow="tram rail_urban rail rail_electric rail_fast ship container cable_car subway aircraft wheelchair scooter drone" speed="7.96" length="14.58" shape="419.16,1550.20 422.95,1551.39 425.38,1553.54 426.45,1556.65 426.15,1560.71"/>
    </edge>
    <edge id=":1955881712_11" function="internal">
        <lane id=":1955881712_11_0" index="0" disallow="tram rail_urban rail rail_electric rail_fast ship container cable_car subway aircraft wheelchair scooter drone" speed="3.65" length="4.67" shape="419.16,1550.20 420.22,1551.18 420.49,1552.03 419.96,1552.76 418.65,1553.36"/>
    </edge>
    <edge id=":1955881712_12" function="internal">
        <lane id=":1955881712_12_0" index="0" disallow="tram rail_urban rail rail_electric rail_fast ship container cable_car subway aircraft wheelchair scooter drone" speed="6.46" length="9.22" shape="423.03,1560.04 423.22,1557.46 422.55,1555.48 421.03,1554.11 418.65,1553.36"/>
    </edge>
    <edge id=":1955881712_13" function="internal">
        <lane id=":1955881712_13_0" index="0" disallow="tram rail_urban rail rail_electric rail_fast ship container cable_car subway aircraft wheelchair scooter drone" speed="13.89" length="14.69" shape="423.03,1560.04 426.49,1545.76"/>
    </edge>
    <edge id=":1955881712_14" function="internal">
        <lane id=":1955881712_14_0" index="0" disallow="tram rail_urban rail rail_electric rail_fast ship container cable_car subway aircraft wheelchair scooter drone" speed="7.81" length="4.38" shape="423.03,1560.04 424.44,1556.21 424.65,1556.00"/>
    </edge>
    <edge id=":1955881712_15" function="internal">
        <lane id=":1955881712_15_0" index="0" disallow="tram rail_urban rail rail_electric rail_fast ship container cable_car subway aircraft wheelchair scooter drone" speed="3.65" length="1.44" shape="423.03,1560.04 424.06,1559.04"/>
    </edge>
    <edge id=":1955881712_18" function="internal">
        <lane id=":1955881712_18_0" index="0" disallow="tram rail_urban rail rail_electric rail_fast ship container cable_car subway aircraft wheelchair scooter drone" speed="7.81" length="10.28" shape="424.65,1556.00 426.73,1553.91 429.88,1553.13 433.89,1553.88"/>
    </edge>
    <edge id=":1955881712_19" function="internal">
        <lane id=":1955881712_19_0" index="0" disallow="tram rail_urban rail rail_electric rail_fast ship container cable_car subway aircraft wheelchair scooter drone" speed="3.65" length="3.23" shape="424.06,1559.04 424.93,1558.81 425.62,1559.37 426.15,1560.71"/>
    </edge>
    <edge id=":1955881727_0" function="internal">
        <lane id=":1955881727_0_0" index="0" disallow="tram rail_urban rail rail_electric rail_fast ship container cable_car subway aircraft wheelchair scooter drone" speed="13.04" length="13.88" shape="510.94,1417.99 509.99,1414.63 508.20,1411.85 505.82,1409.37 503.11,1406.94"/>
    </edge>
    <edge id=":1955881727_1" function="internal">
        <lane id=":1955881727_1_0" index="0" disallow="tram rail_urban rail rail_electric rail_fast ship container cable_car subway aircraft wheelchair scooter drone" speed="17.00" length="15.75" shape="510.94,1417.99 510.54,1414.10 510.41,1410.05 510.80,1406.09 511.95,1402.46"/>
    </edge>
    <edge id=":1955881727_2" function="internal">
        <lane id=":1955881727_2_0" index="0" disallow="tram rail_urban rail rail_electric rail_fast ship container cable_car subway aircraft wheelchair scooter drone" speed="5.85" length="8.64" shape="505.23,1404.55 507.16,1405.75 508.92,1405.81 510.52,1404.71 511.95,1402.46"/>
    </edge>
    <edge id=":1955881727_3" function="internal">
        <lane id=":1955881727_3_0" index="0" disallow="tram rail_urban rail rail_electric rail_fast ship container cable_car subway aircraft wheelchair scooter drone" speed="3.65" length="4.67" shape="505.23,1404.55 505.60,1405.94 505.37,1406.81 504.54,1407.14 503.11,1406.94"/>
    </edge>
    <edge id=":1955881756_0" function="internal">
        <lane id=":1955881756_0_0" index="0" disallow="tram rail_urban rail rail_electric rail_fast ship container cable_car subway aircraft wheelchair scooter drone" speed="13.89" length="4.64" shape="1217.02,1858.63 1216.78,1859.98 1216.67,1860.92 1216.67,1861.86 1216.72,1863.24"/>
    </edge>
    <edge id=":1955881800_0" function="internal">
        <lane id=":1955881800_0_0" index="0" disallow="tram rail_urban rail rail_electric rail_fast ship container cable_car subway aircraft wheelchair scooter drone" speed="22.22" length="0.30" shape="548.06,1707.22 547.76,1707.20"/>
    </edge>
    <edge id=":1955881800_1" function="internal">
        <lane id=":1955881800_1_0" index="0" disallow="tram rail_urban rail rail_electric rail_fast ship container cable_car subway aircraft wheelchair scooter drone" speed="22.22" length="0.10" shape="547.97,1704.02 548.00,1704.03 548.02,1704.02 548.04,1704.02 548.07,1704.02"/>
    </edge>
    <edge id=":1955881826_0" function="internal">
        <lane id=":1955881826_0_0" index="0" disallow="tram rail_urban rail rail_electric rail_fast ship container cable_car subway aircraft wheelchair scooter drone" speed="22.22" length="21.26" shape="522.02,1458.79 522.06,1463.52 522.06,1469.42 521.94,1475.32 521.63,1480.03"/>
    </edge>
    <edge id=":1955881826_1" function="internal">
        <lane id=":1955881826_1_0" index="0" disallow="tram rail_urban rail rail_electric rail_fast ship container cable_car subway aircraft wheelchair scooter drone" speed="6.35" length="2.41" shape="522.02,1458.79 521.30,1461.09"/>
    </edge>
    <edge id=":1955881826_2" function="internal">
        <lane id=":1955881826_2_0" index="0" disallow="tram rail_urban rail rail_electric rail_fast ship container cable_car subway aircraft wheelchair scooter drone" speed="3.65" length="1.44" shape="522.02,1458.79 521.23,1460.00"/>
    </edge>
    <edge id=":1955881826_8" function="internal">
        <lane id=":1955881826_8_0" index="0" disallow="tram rail_urban rail rail_electric rail_fast ship container cable_car subway aircraft wheelchair scooter drone" speed="6.35" length="13.01" shape="521.30,1461.09 520.80,1462.69 517.79,1464.71 514.17,1464.54 511.10,1461.85"/>
    </edge>
    <edge id=":1955881826_9" function="internal">
        <lane id=":1955881826_9_0" index="0" disallow="tram rail_urban rail rail_electric rail_fast ship container cable_car subway aircraft wheelchair scooter drone" speed="3.65" length="3.23" shape="521.23,1460.00 520.44,1460.41 519.63,1460.02 518.82,1458.83"/>
    </edge>
    <edge id=":1955881826_3" function="internal">
        <lane id=":1955881826_3_0" index="0" disallow="tram rail_urban rail rail_electric rail_fast ship container cable_car subway aircraft wheelchair scooter drone" speed="5.53" length="11.22" shape="513.86,1460.22 516.07,1463.36 517.64,1464.18 518.55,1462.67 518.82,1458.83"/>
    </edge>
    <edge id=":1955881826_4" function="internal">
        <lane id=":1955881826_4_0" index="0" disallow="tram rail_urban rail rail_electric rail_fast ship container cable_car subway aircraft wheelchair scooter drone" speed="17.59" length="21.49" shape="513.86,1460.22 516.22,1464.43 518.91,1469.88 521.01,1475.45 521.63,1480.03"/>
    </edge>
    <edge id=":1955881826_5" function="internal">
        <lane id=":1955881826_5_0" index="0" disallow="tram rail_urban rail rail_electric rail_fast ship container cable_car subway aircraft wheelchair scooter drone" speed="3.65" length="4.67" shape="513.86,1460.22 513.78,1461.66 513.29,1462.41 512.40,1462.47 511.10,1461.85"/>
    </edge>
    <edge id=":1955881826_6" function="internal">
        <lane id=":1955881826_6_0" index="0" disallow="tram rail_urban rail rail_electric rail_fast ship container cable_car subway aircraft wheelchair scooter drone" speed="16.77" length="19.49" shape="518.45,1479.67 517.90,1475.39 515.94,1470.51 513.40,1465.75 511.10,1461.85"/>
    </edge>
    <edge id=":1955881826_7" function="internal">
        <lane id=":1955881826_7_0" index="0" disallow="tram rail_urban rail rail_electric rail_fast ship container cable_car subway aircraft wheelchair scooter drone" speed="22.22" length="20.85" shape="518.45,1479.67 518.76,1475.02 518.87,1469.26 518.87,1463.50 518.82,1458.83"/>
    </edge>
    <edge id=":1955881863_0" function="internal">
        <lane id=":1955881863_0_0" index="0" disallow="tram rail_urban rail rail_electric rail_fast ship container cable_car subway aircraft wheelchair scooter drone" speed="13.89" length="34.01" shape="659.83,1745.75 635.08,1722.42"/>
    </edge>
    <edge id=":1955881863_1" function="internal">
        <lane id=":1955881863_1_0" index="0" disallow="tram rail_urban rail rail_electric rail_fast ship container cable_car subway aircraft wheelchair scooter drone" speed="5.73" length="2.26" shape="659.83,1745.75 658.82,1743.73"/>
    </edge>
    <edge id=":1955881863_2" function="internal">
        <lane id=":1955881863_2_0" index="0" disallow="tram rail_urban rail rail_electric rail_fast ship container cable_car subway aircraft wheelchair scooter drone" speed="3.66" length="1.46" shape="659.83,1745.75 659.58,1744.31"/>
    </edge>
    <edge id=":1955881863_9" function="internal">
        <lane id=":1955881863_9_0" index="0" disallow="tram rail_urban rail rail_electric rail_fast ship container cable_car subway aircraft wheelchair scooter drone" speed="5.73" length="11.93" shape="658.82,1743.73 658.28,1742.63 659.52,1739.41 662.48,1737.38 666.12,1737.84"/>
    </edge>
    <edge id=":1955881863_10" function="internal">
        <lane id=":1955881863_10_0" index="0" disallow="tram rail_urban rail rail_electric rail_fast ship container cable_car subway aircraft wheelchair scooter drone" speed="3.66" length="3.26" shape="659.58,1744.31 659.90,1743.46 660.76,1743.20 662.18,1743.53"/>
    </edge>
    <edge id=":1955881863_3" function="internal">
        <lane id=":1955881863_3_0" index="0" disallow="tram rail_urban rail rail_electric rail_fast ship container cable_car subway aircraft wheelchair scooter drone" speed="7.72" length="27.50" shape="664.48,1740.59 655.52,1735.54 652.15,1734.35 654.37,1737.01 662.18,1743.53"/>
    </edge>
    <edge id=":1955881863_4" function="internal">
        <lane id=":1955881863_4_0" index="0" disallow="tram rail_urban rail rail_electric rail_fast ship container cable_car subway aircraft wheelchair scooter drone" speed="13.89" length="34.58" shape="664.48,1740.59 658.62,1737.12 649.63,1731.73 640.71,1726.22 635.08,1722.42"/>
    </edge>
    <edge id=":1955881863_5" function="internal">
        <lane id=":1955881863_5_0" index="0" disallow="tram rail_urban rail rail_electric rail_fast ship container cable_car subway aircraft wheelchair scooter drone" speed="3.65" length="4.67" shape="664.48,1740.59 663.86,1739.29 663.93,1738.40 664.68,1737.92 666.12,1737.84"/>
    </edge>
    <edge id=":1955881863_6" function="internal">
        <lane id=":1955881863_6_0" index="0" disallow="tram rail_urban rail rail_electric rail_fast ship container cable_car subway aircraft wheelchair scooter drone" speed="13.89" length="34.12" shape="637.09,1719.93 642.66,1723.69 651.45,1729.11 660.32,1734.41 666.12,1737.84"/>
    </edge>
    <edge id=":1955881863_7" function="internal">
        <lane id=":1955881863_7_0" index="0" disallow="tram rail_urban rail rail_electric rail_fast ship container cable_car subway aircraft wheelchair scooter drone" speed="13.89" length="34.44" shape="637.09,1719.93 662.18,1743.53"/>
    </edge>
    <edge id=":1955881863_8" function="internal">
        <lane id=":1955881863_8_0" index="0" disallow="tram rail_urban rail rail_electric rail_fast ship container cable_car subway aircraft wheelchair scooter drone" speed="3.65" length="1.44" shape="637.09,1719.93 637.52,1721.30"/>
    </edge>