<?xml version="1.0" encoding="UTF-8"?>

<!-- generated on 2026-05-21 15:32:03.282766 by randomTrips.py v1_24_0+0000-b72eb3fabc8
<configuration>
    <net-file value="guanajuato_v2v.net.xml"/>
    <additional-files value="vehiculos_gto.add.xml"/>
    <route-file value="rutas_gto.rou.xml"/>
    <trip-attributes value="type=&quot;coche_estandar&quot;"/>
    <end value="1000.0"/>
    <period value="2.0"/>
</configuration>
-->

<!-- generated on 2026-05-21 15:32:03 by Eclipse SUMO duarouter Version 1.24.0
<duarouterConfiguration xmlns:xsi="http://www.w3.org/2001/XMLSchema-instance" xsi:noNamespaceSchemaLocation="http://sumo.dlr.de/xsd/duarouterConfiguration.xsd">

    <input>
        <net-file value="guanajuato_v2v.net.xml"/>
        <additional-files value="vehiculos_gto.add.xml"/>
        <route-files value="trips.trips.xml"/>
    </input>

    <output>
        <output-file value="rutas_gto.rou.xml"/>
        <alternatives-output value="NUL"/>
    </output>

    <time>
        <begin value="0"/>
        <end value="1000.0"/>
    </time>

    <report>
        <no-warnings value="true"/>
        <ignore-errors value="true"/>
        <no-step-log value="true"/>
    </report>

</duarouterConfiguration>
-->

<routes xmlns:xsi="http://www.w3.org/2001/XMLSchema-instance" xsi:noNamespaceSchemaLocation="http://sumo.dlr.de/xsd/routes_file.xsd">
    <vType id="coche_estandar" length="4.50" maxSpeed="40.00" vClass="passenger" emissionClass="HBEFA4/PC_petrol_Euro-6c" accel="2.6" decel="4.5" sigma="0.5"/>
    <vehicle id="0" type="coche_estandar" depart="0.00">
        <route edges="607960667#4 607960667#5 607960667#6 607960667#7 607960667#8 607960667#9 607960667#11 607960667#12 607960667#13 607960667#14 -185016574#2 -185016574#0 652910250#0 652910250#1 -605095030#4 -605095030#3 -605095030#2 -605095030#1 -605095030#0 605095031 605095030#1"/>
    </vehicle>
    <vehicle id="1" type="coche_estandar" depart="2.00">
        <route edges="185017217 -27334544#0 -700375178 -614488320 185017218#2 185017218#3 185017218#4 185017218#5 185017218#6 185017218#7 -652409298#0 -185017039#11 -185017039#10 -185017039#9 -185017039#7 -185017039#6 -185017039#5 -185017039#4 -185017039#3 -185017039#2 -185017039#1"/>
    </vehicle>
    <vehicle id="2" type="coche_estandar" depart="4.00">
        <route edges="-652429496#1 -652429496#0 185017039#9 185017039#10 185017039#11 -687443349#1 -614658427#1 -614658427#0 -562675720#1 -562675720#0 689142560 -562888670#1 689149454 84618101#2 84618101#3 84618101#4 246742346 607149861 27333684 608088722#0 27371514#1 27371514#2 27335000 189150164#1 189150164#2 189149006#1 189438785#4 189438786#0"/>
    </vehicle>
    <vehicle id="3" type="coche_estandar" depart="6.00">
        <route edges="-185017039#2 652429477#0 652429477#1 652429478#0 652429478#1 652429478#2 652429478#3 -652429478#3"/>
    </vehicle>
    <vehicle id="4" type="coche_estandar" depart="8.00">
        <route edges="479734311#6 687418291 27371514#8 27332073#0 27332073#1 607173632#5 607173632#6 1420501863#0 1420501863#1 188429802#2 188429799 188429810#1 246740914#1"/>
    </vehicle>
    <vehicle id="5" type="coche_estandar" depart="10.00">
        <route edges="652429477#1 652429478#0 652429478#1 652429478#2 652429478#3 185017225#0 185017225#1 185017225#2 -687443349#1 -614658427#1 -614658427#0 -562675720#1 -562675720#0 689142560 -562888670#1 689149454 84618101#2 84618101#3 84618101#4 246742346 607149861 27333684 27335298 688444837#0 688444837#1 688444837#2 315822687 607173632#0 607173632#1 607173632#2 607173632#3 607173632#5 607173632#6 607173632#7 188429815#0 188429815#1 188429797#1 84723459#0 84723459#1 -374350878 66506785#0 66506785#1 188427146#0 188427146#1 1089593865 924524497 27320250#0 27320250#1 188427144#0 188427144#1 605900716"/>
    </vehicle>
    <vehicle id="6" type="coche_estandar" depart="12.00">
        <route edges="-740552777 614482193#2 740552781 740552780 185017473#0 185017473#1 185017473#2 189438785#1 189438794#0 189438794#1 189438793#1 189438793#2 610003675 921851537#2 1089593871 1089593870#1 610003671 191927591#1 188429814#0 188429814#1 188429814#2 188429814#3 188429814#4 188429814#5 188429814#6 191928112#1 191928112#3 191928112#4 84618100 1254933228 -27320441#4 -27320441#2 -27320441#1 27320426 1089354485#1 188426787 605617918 605617906#1 605617913#0 605617913#1 -689171216#4 -689171216#3 -689171216#2 -689171216#1 -689171216#0 -689171208#3 -689171208#2 -689171208#1 -652512529#0 -562959923#0 -753078996 895546913#1 610004534#0 -610004534#0"/>
    </vehicle>
    <vehicle id="7" type="coche_estandar" depart="14.00">
        <route edges="-506590786 -506590791#0 -506590788#1 -506590788#0"/>
    </vehicle>
    <vehicle id="8" type="coche_estandar" depart="16.00">
        <route edges="1420501863#1 188429802#2 188429799 188429810#1 246740914#1 607173632#3 607173632#5 607173632#6 607173632#7 188429815#0 188429815#1 188429797#1 84723459#0 84723459#1 -374350878 66506785#0 66506785#1 188427146#0 188427146#1 1089593865 924524497 27320250#0"/>
    </vehicle>
    <vehicle id="9" type="coche_estandar" depart="18.00">
        <route edges="652429493#1 -652429484#0 185017039#6 185017039#7 185017039#9 185017039#10 185017039#11 -687443349#1 -614658427#1 -614658427#0 -562675720#1 -562675720#0 689142560 -562888670#1 689149454 84618101#2 84618101#3 84618101#4 246742346 607149861 27333684 608088722#0 27371557 27371558"/>
    </vehicle>
    <vehicle id="10" type="coche_estandar" depart="20.00">
        <route edges="652512531#1 610293810 -652512530#1 -652512530#0 689171208#1 689171208#2 689171208#3 689171216#0 689171216#1 689171216#2 689171216#3 689171216#4 189956398#0 189956398#1 605617906#3 1089593864 1068563017#0 1068563017#1 1068563017#2 605617917 -188426787 -1089354485#1 -1089354485#0 27320441#1 27320441#2 27320441#4 1068563016#1 1068563016#2 188429802#0 188429802#1 188429802#2 188429799 188429810#1 188429810#2 188429807#1 188429818#1 188429800#1 605094238#0 605094238#1 605094238#2 605094238#3 605094238#5 605094238#6 605094238#7 27362679#0 27362679#1 27362679#2 27362778 27362597#1 315818425#0 315818425#1 738372001#0 738372001#1 27362612#0 27362612#1 27362612#2 27362612#3 27362612#4 27362612#5 27362612#6 321054001 27333684"/>
    </vehicle>
    <vehicle id="11" type="coche_estandar" depart="22.00">
        <route edges="605633283#2-AddedOffRampEdge 605633283#3 605633283#4 924524497 188427145#0 188427145#1 188427145#2 605628210#0 605628210#1 -66506785#1 -66506785#0 374350878 -84723459#1 -84723459#0 189443288#0 189443288#1 188429799 188429810#1 188429810#2 188429807#1 188429818#1 188429800#1 605094238#0 605094238#1 605094238#2 605094238#3 605094238#5 605094238#6 605094238#7 27362679#0 27362679#1 27362679#2 27362778 27362597#1 315818425#0 315818425#1 738372001#0 738372001#1 27362612#0 27362612#1 27362612#2 27362612#3 27362612#4 27362612#5 27362612#6 321054001 27333684 608088722#0 27371557 27371558 607726780#1 607726780#2 607726780#3 562675720#0 562675720#1 614658427#0 614658427#1 687443349#1 652409298#0 -185017218#7 -185017218#6 -185017218#5 -185017218#4 -185017218#3"/>
    </vehicle>
    <vehicle id="12" type="coche_estandar" depart="24.00">
        <route edges="-652429502#1 -652429498#1 652429478#0 652429494 652429492#1 652429496#2 -687390284"/>
    </vehicle>
    <vehicle id="13" type="coche_estandar" depart="26.00">
        <route edges="321226267#0 321226267#1 321226267#2 191928112#1 191928112#3 191928112#4 84618100 1254933228 1068563016#1"/>
    </vehicle>
    <vehicle id="14" type="coche_estandar" depart="28.00">
        <route edges="1089593869 188426325 188429814#0 188429814#1 188429814#2 188429814#3 188429814#4 188429814#5 188429814#6 191928112#1 191928112#3 191928112#4 84618100 1254933228 1068563016#1 1068563016#2 188429802#0 188429802#1 188429802#2 188429799 188429810#1 188429810#2 188429807#1 188429818#1 188429800#1 605094238#0 605094238#1 605094238#2 605094238#3 605094238#5 605094238#6 605094238#7 27362679#0 27362679#1 27362679#2 27362778 27362597#1 315818425#0 315818425#1 738372001#0 738372001#1 27362612#0 27362612#1 27362612#2 27362612#3 27362612#4 27362612#5 27362612#6 321054001 27333684 608088722#0 27371557 27371558 607726780#1 607726780#2 607726780#3 562675720#0 562675720#1 614658427#0 614658427#1 687443349#1 -185017039#11 -185017039#10 -185017039#9 652429496#0 -652429489#2"/>
    </vehicle>
    <vehicle id="15" type="coche_estandar" depart="30.00">
        <route edges="479734311#4 479734311#5 479734311#6 687418291 27371514#8 27332073#0 27332073#1 607173632#5 607173632#6 1420501863#0 1420501863#1 188429802#2 188429799 188429810#1 188429810#2 188429807#1 188429818#1 188429800#1 605094238#0 605094238#1 605094238#2 605094238#3 605094238#5 605094238#6 605094238#7 27362679#0 27362679#1 27362679#2 27362778 27362597#1 315818425#0 315818425#1 738372001#0 738372001#1 27362612#0 27362612#1 27362612#2 27362612#3 27362612#4 27362612#5 27362612#6 321054001 27333684 608088722#0 27371514#1"/>
    </vehicle>
    <vehicle id="16" type="coche_estandar" depart="32.00">
        <route edges="84721698#1 -84721698#1 610293809 689171208#3 689171216#0 689171216#1 689171216#2 689171216#3 689171216#4 189956398#0 189956398#1 605617906#3 1089593864 1068563017#0 1068563017#1 1068563017#2 605617917 -188426787 191929033#1 605633283#0 605633283#1 605633283#2 605633283#2-AddedOffRampEdge 605633283#3 605633283#4 924524497 188427145#0 188427145#1 188427145#2 605628210#0 605628210#1 -66506785#1 -66506785#0 -188426788 188426791 1089593867#0 1089593867#1 1089593867#2 188358716 1089593869 188426325 788618493 921851537#0 610003674#0 610003674#1 -189438793#2 -189438793#1 189438788#0 479734306#0 479734306#1 479734311#0 479734311#1 479734311#2 479734311#3 479734311#4"/>
    </vehicle>
    <vehicle id="17" type="coche_estandar" depart="34.00">
        <route edges="246742533#2 246742533#3 246742533#4 246742533#5 246742346 607149861 27333684 27335298 688444837#0 688444837#1 688444837#2 315822687 607173632#0 607173632#1 607173632#2 607173632#3 607173632#5 607173632#6 607173632#7 -1068563016#2 -1068563016#1 -27320441#4 -27320441#2 -27320441#1 27320426 1089354485#1 188426787 605617918 605617906#1 605617913#0 605617913#1"/>
    </vehicle>
    <vehicle id="18" type="coche_estandar" depart="36.00">
        <route edges="652429503#2 652429503#3 -740031396#0 -740031395 185017225#0 185017225#1 185017225#2 -687443349#1 -614658427#1 -614658427#0 -562675720#1 -562675720#0 689142560 -562888670#1 689149454 84618101#2 84618101#3 84618101#4 246742346 607149861 27333684 608088722#0 27371514#1 27371514#2 27335000 189150164#1 189150164#2 189149006#1 189438785#4 189438786#0 189438786#2 189438786#3 185017473#0 185017473#1 -610228558 614482176#1"/>
    </vehicle>
    <vehicle id="19" type="coche_estandar" depart="38.00">
        <route edges="-652429503#0 -740031396#1 -740031396#0 -740031395 185017225#0 185017225#1 185017225#2 -185017039#11"/>
    </vehicle>
    <vehicle id="20" type="coche_estandar" depart="40.00">
        <route edges="-652429491 652429489#2 -652429496#0 185017039#9 185017039#10 185017039#11 652409298#0 652409298#1 652409298#2 652409298#3 700370437"/>
    </vehicle>
    <vehicle id="21" type="coche_estandar" depart="42.00">
        <route edges="689149456 687386401 687465150 84618101#1 84618101#2 84618101#3 84618101#4 246742346 607149861 27333684 27335298 688444837#0 688444837#1 688444837#2 315822687 607173632#0 607173632#1 188837039 1148924934 188429806#1 188429806#2"/>
    </vehicle>
    <vehicle id="22" type="coche_estandar" depart="44.00">
        <route edges="27332073#0 27332073#1 607173632#5 607173632#6 1420501863#0 1420501863#1 188429802#2 188429799 188429810#1 188429810#2 188429807#1 188429818#1 188429800#1 605094238#0 605094238#1 605094238#2 605094238#3 605094238#5 605094238#6 605094238#7 27362679#0 27362679#1 27362679#2 27362778 27362597#1 315818425#0 315818425#1 738372001#0 738372001#1 27362612#0 27362612#1 27362612#2 27362612#3 27362612#4 27362612#5 27362612#6 321054001 27333684 608088722#0 27371557 27371558 607726780#1 607726780#2 607726780#3 562675720#0 562675720#1 614658427#0 614658427#1 687443349#1 652409298#0 652409298#1 652409298#2 687386403"/>
    </vehicle>
    <vehicle id="23" type="coche_estandar" depart="46.00">
        <route edges="894537765 689171210#6 689171210#7 689171210#8 83520561#1 83520561#2 83520561#3 83520561#4 83520561#5 689171208#1 689171208#2 689171208#3 689171216#0 689171216#1 689171216#2 689171216#3 689171216#4 189956398#0 189956398#1 605617906#3 1089593864 1068563017#0 1068563017#1 1068563017#2 605617917 -188426787 191929033#1 605633283#0 605633283#1 605633283#2 605633283#2-AddedOffRampEdge 605633283#3 605633283#4 924524497 188427145#0 188427145#1 188427145#2 605628210#0 605628210#1 -66506785#1 -66506785#0 -188426788 188426791 1089593867#0 1089593867#1 1089593867#2 188358716 1089593869 188426325 788618493 921851537#0 610003674#0 610003674#1 -189438793#2 -189438793#1 189438788#0 189438788#1"/>
    </vehicle>
    <vehicle id="24" type="coche_estandar" depart="48.00">
        <route edges="-374350878 374350878 -84723459#1 -84723459#0 189443288#0 189443288#1 188429799 188429810#1 188429810#2 188429807#1 188429818#1 188429800#1 605094238#0 605094238#1 605094238#2 605094238#3 605094238#5 605094238#6 605094238#7 27362679#0 27362679#1 27362679#2 27362778 27362597#1 315818425#0 315818425#1 738372001#0 738372001#1 27362612#0 27362612#1 27362612#2 27362612#3 27362612#4 27362612#5 27362612#6 321054001 27333684 608088722#0 27371557 27371558 607726780#1 607726780#2 607726780#3 562675720#0 562675720#1 614658427#0 614658427#1 687443349#1 652409298#0 -185017218#7 -185017218#6 -185017218#5 -185017218#4"/>
    </vehicle>
    <vehicle id="25" type="coche_estandar" depart="50.00">
        <route edges="649320448#0 649320448#1 -689149456 -689149455 -562888670#1 689149454 84618101#2 84618101#3 84618101#4 246742346 607149861 27333684 608088722#0 27371557 27371558 607726780#1 607726780#2 607726780#3 562675720#0 562675720#1 614658427#0 614658427#1 687443349#1 -185017225#2 -185017225#1 -185017225#0 185017225#0"/>
    </vehicle>
    <vehicle id="26" type="coche_estandar" depart="52.00">
        <route edges="83520561#1 83520561#2 83520561#3 83520561#4 83520561#5 -652512529#0 -562959923#0 -753078996 -753350475#2 -753350475#1 652512531#0"/>
    </vehicle>
    <vehicle id="27" type="coche_estandar" depart="54.00">
        <route edges="-185016574#0 185016574#0 185016574#2 -607960667#14 607960667#14"/>
    </vehicle>
    <vehicle id="28" type="coche_estandar" depart="56.00">
        <route edges="605094238#2 605094238#3 605094238#5 605094238#6 605094238#7 27362679#0 27362679#1 27362679#2 27362778 27362597#1 315818425#0 315818425#1 738372001#0 738372001#1 27362612#0 27362612#1 27362612#2 27362612#3 27362612#4 27362612#5 27362612#6 321054001 27333684 27335298 688444837#0 688444837#1 688444837#2 315822687 607173632#0 607173632#1 607173632#2 607173632#3 607173632#5 607173632#6 607173632#7 -1068563016#2 -1068563016#1 191928114#0 191928114#1 191928114#2 191928111#1"/>
    </vehicle>
    <vehicle id="29" type="coche_estandar" depart="58.00">
        <route edges="188426791 1089593867#0 -188427142 -84723459#1 -84723459#0 189443288#0 189443288#1 188429799 188429810#1 188429810#2 188429807#1 188429818#1 188429800#1 605094238#0 605094238#1 605094238#2 605094238#3 605094238#5 605094238#6 605094238#7 27362679#0 27362679#1 27362679#2 27362778 27362597#1 315818425#0 315818425#1 738372001#0 738372001#1 27362612#0 27362612#1 27362612#2 27362612#3 27362612#4 27362612#5 27362612#6 321054001 27333684 608088722#0 27371557 27371558 607726780#1 607726780#2 607726780#3 562675720#0 562675720#1 614658427#0 614658427#1 687443349#1 -185017225#2 -185017225#1 -185017225#0 740031395"/>
    </vehicle>
    <vehicle id="30" type="coche_estandar" depart="60.00">
        <route edges="652910242#1 -652910242#1 -652910242#0"/>
    </vehicle>
    <vehicle id="31" type="coche_estandar" depart="62.00">
        <route edges="188927914#1 27361964#1 27361964#2 27361960#0 27361960#1 738372001#0 738372001#1 27362612#0 27362612#1 27362612#2 27362612#3 27362612#4 27362612#5 27362612#6 321054001 27333684 608088722#0 27371557 27371558 607726780#1 607726780#2 607726780#3 562675720#0 562675720#1 614658427#0 614658427#1 -614658427#1"/>
    </vehicle>
    <vehicle id="32" type="coche_estandar" depart="64.00">
        <route edges="27362612#4 27362612#5 27362612#6 321054001 27333684 608088722#0 27371514#1 27371514#2 27335000 189150164#1 189150164#2 189149006#1 189438785#4 189438785#5 189438785#1 189438794#0 189438794#1 189438793#1 189438793#2 610003675 921851537#2 610004043 610004042#0 610004042#1 610004042#2 610004042#3 610004042#4 -610004042#4"/>
    </vehicle>
    <vehicle id="33" type="coche_estandar" depart="66.00">
        <route edges="610004534#1 -610004536 -610004535#1 -610004535#0 -610004534#0 -895546913#1 753078996 562959923#0 562959923#1 689171208#1 689171208#2 689171208#3 689171216#0 689171216#1 689171216#2 689171216#3 689171216#4 189956398#0 189956398#1 605617906#3 1089593864 1068563017#0 1068563017#1 1068563017#2 605617917 -188426787 -1089354485#1 -1089354485#0 27320441#1 27320441#2 27320441#4 191928114#0 191928114#1 191928114#2 191928111#1 191928112#1 191928112#3 191928112#4"/>
    </vehicle>
    <vehicle id="34" type="coche_estandar" depart="68.00">
        <route edges="614482184 185017039#1 185017039#2 185017039#3 185017039#4 185017039#5 185017039#6 185017039#7 185017039#9 185017039#10 185017039#11 -687443349#1 -614658427#1 -614658427#0 -562675720#1 -562675720#0 689142560 -562888670#1 689149454 84618101#2 84618101#3 84618101#4 246742346 607149861 27333684 27335298 688444837#0 688444837#1 688444837#2 315822687 607173632#0 607173632#1 607173632#2 607173632#3 607173632#5 607173632#6 607173632#7 -1068563016#2 -1068563016#1 -27320441#4 -27320441#2 -27320441#1 27320426 1089354485#1 188426787 605617918 605617906#1 605617913#0 605617913#1 -689171216#4 -689171216#3 -689171216#2 -689171216#1 -689171216#0 689171216#0 689171216#1 689171216#2 689171216#3 689171216#4 189956398#0"/>
    </vehicle>
    <vehicle id="35" type="coche_estandar" depart="70.00">
        <route edges="-1068563016#1 1068563016#1 1068563016#2 188429802#0 188429802#1 188429802#2 188429799 188429810#1 188429810#2 188429807#1 188429818#1 188429800#1 605094238#0 605094238#1 605094238#2 605094238#3 605094238#5 605094238#6 605094238#7 27362679#0 27362679#1 27362679#2 27362778 27362597#1 315818425#0 315818425#1 738372001#0 738372001#1 27362612#0 27362612#1 27362612#2 27362612#3 27362612#4 27362612#5 27362612#6 321054001 27333684 608088722#0 27371557 27371558 607726780#1 607726780#2 607726780#3 562675720#0 562675720#1 614658427#0 614658427#1 687443349#1 652409298#0 -185017218#7 -185017218#6 -185017218#5 -185017218#4 -185017218#3 -185017218#2 614488320 700375178 27334544#0 -27334544#0 -700375178"/>
    </vehicle>
    <vehicle id="36" type="coche_estandar" depart="72.00">
        <route edges="-689171208#2 -689171208#1 689171208#1 689171208#2 689171208#3 689171216#0 689171216#1 689171216#2 689171216#3 689171216#4 189956398#0 189956398#1 605617906#3 1089593864 1068563017#0 1068563017#1 1068563017#2 605617917 -188426787 191929033#1 605633283#0 605633283#1 605633283#2 605633283#2-AddedOffRampEdge 605633283#3 605633283#4 924524497 188427145#0 188427145#1 188427145#2 605628210#0 605628210#1 -66506785#1 -66506785#0 -188426788 188426791 1089593867#0 1089593867#1 1089593867#2 188358716 1089593869 188426325 788618493 921851537#0 921851537#1 921851537#2 610004043 610004042#0 610004042#1 610004042#2 610004042#3 610004042#4 610004042#5 -185017470#2 -185017470#1 -185017470#0"/>
    </vehicle>
    <vehicle id="37" type="coche_estandar" depart="74.00">
        <route edges="652910243#0 652910251 607510081#2 652910250#0 652910250#1 588195003#0 588195003#1 588195004 588195005#0 -185016561#2 735349620"/>
    </vehicle>
    <vehicle id="38" type="coche_estandar" depart="76.00">
        <route edges="-652910242#0 185016584#2 652910246 652910241#0"/>
    </vehicle>
    <vehicle id="39" type="coche_estandar" depart="78.00">
        <route edges="185017218#0 185017218#1 185017218#2 185017218#3 185017218#4 185017218#5 185017218#6 185017218#7 -652409298#0 -185017039#11 -185017039#10 -652429491"/>
    </vehicle>
    <vehicle id="40" type="coche_estandar" depart="80.00">
        <route edges="-652429483#2 -652429483#0 185017039#5 185017039#6 185017039#7 185017039#9 185017039#10 185017039#11 -687443349#1 -614658427#1 -614658427#0 -562675720#1 -562675720#0 689142560 -562888670#1 689149454 84618101#2 84618101#3 84618101#4 246742346 607149861 27333684 27335298 688444837#0 688444837#1 688444837#2 315822687 607173632#0 607173632#1 607173632#2 607173632#3 607173632#5 607173632#6 607173632#7 -1068563016#2 -1068563016#1 -27320441#4 -27320441#2 -27320441#1 27320426 1089354485#1 188426787 605617918 605617906#1 605617913#0 605617913#1 -689171216#4 -689171216#3 -689171216#2 -689171216#1 -689171216#0 -689171208#3 -689171208#2 -689171208#1 -83520561#5 -83520561#4 -83520561#3 -83520561#2 -83520561#1 -83520561#0 -689171210#7 -689171210#6 -689171210#5"/>
    </vehicle>
    <vehicle id="41" type="coche_estandar" depart="82.00">
        <route edges="84723459#0 84723459#1 -374350878 374350878 -84723459#1 -84723459#0 189443288#0 189443288#1 188429799 188429810#1 188429810#2 188429807#1 188429818#1 188429800#1 605094238#0 605094238#1 605094238#2 605094238#3 605094238#5 605094238#6 605094238#7 27362679#0 27362679#1 27362679#2 27362778 27362597#1 315818425#0 315818425#1 738372001#0 738372001#1 27362612#0 27362612#1 27362612#2 27362612#3 27362612#4 27362612#5 27362612#6 321054001 27333684 608088722#0 27371557 27371558 607726780#1 607726780#2 607726780#3 562675720#0"/>
    </vehicle>
    <vehicle id="42" type="coche_estandar" depart="84.00">
        <route edges="-740033045 -609830838#1 -609830838#0 -740552777 614482193#2 740552781 740552780 185017473#0 185017473#1 185017473#2 189438785#1 189438794#0 189438794#1 189438788#0 479734306#0 479734306#1 479734311#0 479734311#1 479734311#2 479734311#3 479734311#4 479734311#5 479734311#6 687418291 27371514#8 27332073#0 27332073#1 607173632#5 607173632#6 1420501863#0 1420501863#1 188429802#2 188429799 188429810#1 188429810#2 188429807#1 188429818#1 188429800#1 605094238#0 605094238#1 188927908#0 27320401#3 604418273#2 188927909#0 188927909#1 604418406 27344326#1 27344326#2 27344326#3 27344326#4 27344326#5 27344326#6"/>
    </vehicle>
    <vehicle id="43" type="coche_estandar" depart="86.00">
        <route edges="-652429503#1 -652429503#0 -740031396#1 -740031396#0 -740031395 185017225#0 687390283 652429492#1 652429496#2 -652429496#2"/>
    </vehicle>
    <vehicle id="44" type="coche_estandar" depart="88.00">
        <route edges="652512530#1 -652512530#1 -652512530#0 689171208#1 689171208#2 689171208#3 689171216#0 689171216#1 689171216#2 689171216#3 689171216#4 189956398#0 189956398#1 605617906#3 1089593864 1068563017#0 1068563017#1 1068563017#2 605617917 -188426787 -1089354485#1 -1089354485#0 27320441#1 27320441#2 27320441#4 191928114#0 191928114#1 191928114#2 191928111#1 -188429814#6 -188429814#5 -188429814#4"/>
    </vehicle>
    <vehicle id="45" type="coche_estandar" depart="90.00">
        <route edges="-652478183#0 610228558 185017473#2 189438785#1 189438794#0 189438794#1 189438788#0 479734306#0 479734306#1 479734311#0 479734311#1 479734311#2 479734311#3 479734311#4 479734311#5 479734311#6 687418291 27371514#8 27332073#0 27332073#1 607173632#5 607173632#6 1420501863#0 1420501863#1 188429802#2 188429799 188429810#1 188429810#2 188429807#1 188429818#1 188429800#1 605094238#0 605094238#1 188927908#0 27320401#3 604418273#2 188927909#0 188927909#1 604418406"/>
    </vehicle>
    <vehicle id="46" type="coche_estandar" depart="92.00">
        <route edges="691998733 652429493#1 -652429484#0 185017039#6 185017039#7 185017039#9 185017039#10 185017039#11 -687443349#1 -614658427#1 -614658427#0 -562675720#1 -562675720#0 689142560 -562888670#1 689149454 84618101#2 84618101#3 84618101#4 246742346 607149861 27333684 27335298 688444837#0 688444837#1 688444837#2 315822687 607173632#0 607173632#1 607173632#2 607173632#3 607173632#5 607173632#6 607173632#7 -1068563016#2 -1068563016#1 -27320441#4 -27320441#2 -27320441#1 27320426 27320434#1 27320434#2"/>
    </vehicle>
    <vehicle id="47" type="coche_estandar" depart="94.00">
        <route edges="188429806#1 27320401#1 767340493 605094238#3 605094238#5 605094238#6 605094238#7 27362679#0 27362679#1 27362679#2 27362778 27362597#1 315818425#0 315818425#1 738372001#0 738372001#1 27362612#0 27362612#1 27362612#2 27362612#3 27362612#4 27362612#5 27362612#6 321054001 27333684 608088722#0 27371557 27371558 607726780#1 607726780#2 607726780#3 562675720#0 562675720#1 614658427#0 614658427#1 687443349#1 652409298#0 -185017218#7 -185017218#6 -185017218#5 -185017218#4 -185017218#3 -185017218#2 614488320"/>
    </vehicle>
    <vehicle id="48" type="coche_estandar" depart="96.00">
        <route edges="652429478#1 652429478#2 652429478#3 185017225#0 185017225#1 185017225#2 652409298#0 652409298#1 652409298#2 -652409298#2 -652409298#1"/>
    </vehicle>
    <vehicle id="49" type="coche_estandar" depart="98.00">
        <route edges="-554749548#1 -554749548#0 689171210#4 689171210#5 689171210#6 689171210#7 689171210#8 83520561#1 83520561#2 83520561#3 83520561#4 83520561#5 689171208#1 689171208#2 689171208#3 689171216#0 689171216#1 689171216#2 689171216#3 689171216#4 189956398#0 189956398#1 605617906#3 1089593864 1068563017#0 1068563017#1 1068563017#2 605617917 -188426787 191929033#1 605633283#0 605633283#1 605633283#2 605633283#2-AddedOffRampEdge 605633283#3 605633283#4 924524497 188427145#0 188427145#1 188427145#2 605628210#0 605628210#1 -66506785#1 -66506785#0 -188426788 188426791 1089593867#0 1089593867#1 1089593867#2 188358716 1089593869 188426325 788618493 921851537#0 610003674#0 610003674#1 -189438793#2 -189438793#1 189438788#0 189438788#1 189438785#3 189438785#4 189438786#0 189438786#2 189438786#3 185017473#0"/>
    </vehicle>
    <vehicle id="50" type="coche_estandar" depart="100.00">
        <route edges="185017218#0 185017218#1 185017218#2 185017218#3 185017218#4 185017218#5 185017218#6 185017218#7 -652409298#0 -687443349#1 -614658427#1 -614658427#0 -562675720#1 -562675720#0 689142560 -562888670#1 689149454 84618101#2 84618101#3 84618101#4 246742346 607149861 27333684 608088722#0 27371514#1 27371514#2 27371514#3 27371514#4 27371514#5 27371514#6 27371514#7 27371514#8 321226267#0 321226267#1 321226267#2 -188429814#6 -188429814#5 -188429814#4 -188429814#3 -188429814#2 -188429814#1 -188429814#0 188429814#0 188429814#1 188429814#2 188429814#3"/>
    </vehicle>
    <vehicle id="51" type="coche_estandar" depart="102.00">
        <route edges="652512531#1 610293810 -652512530#1 -652512530#0"/>
    </vehicle>
    <vehicle id="52" type="coche_estandar" depart="104.00">
        <route edges="-652409298#0 -687443349#1 -614658427#1 -614658427#0 -562675720#1 -562675720#0 689142560 -562888670#1 689149454 84618101#2 84618101#3 84618101#4 246742346 607149861 27333684 27335298 688444837#0 688444837#1 688444837#2 315822687 607173632#0 607173632#1 607173632#2 607173632#3 607173632#5 607173632#6 607173632#7 188429815#0 188429815#1 188429797#1 84723459#0 84723459#1 -374350878 66506785#0 66506785#1 188427146#0 188427146#1 1089593865 924524497 27320250#0 27320250#1 188427144#0 188427144#1"/>
    </vehicle>
    <vehicle id="53" type="coche_estandar" depart="106.00">
        <route edges="-652512530#0 -652512529#0 -562959923#0 -753078996 895546913#1 895546913#2 689171210#0"/>
    </vehicle>
    <vehicle id="54" type="coche_estandar" depart="108.00">
        <route edges="185017472#2 614482193#0 614482193#2 740552781 740552780 185017473#0 185017473#1 185017473#2 189438785#1 189438794#0 189438794#1 189438793#1 189438793#2 610003675 921851537#2 1089593871 1089593870#1 610003671 191927591#1 188429814#0 188429814#1 188429814#2 188429814#3 188429814#4 188429814#5 188429814#6 191928112#1 191928112#3 191928112#4 84618100 1254933228 -27320441#4 -27320441#2 -27320441#1 27320426 1089354485#1 188426787 605617918 605617906#1 605617913#0 605617913#1 -689171216#4 -689171216#3 -689171216#2 -689171216#1 -689171216#0 -689171208#3 -610293809 84721698#1 84721698#2 84721698#4 652512531#0"/>
    </vehicle>
    <vehicle id="55" type="coche_estandar" depart="110.00">
        <route edges="191928114#2 191928111#1 191928112#1 191928112#3 191928112#4 84618100 1254933228 1068563016#1 1068563016#2 188429802#0 188429802#1 188429802#2 188429799 188429810#1 188429810#2 188429807#1 188429818#1 188429800#1 605094238#0 605094238#1 605094238#2 605094238#3 605094238#5 605094238#6 605094238#7 27362679#0 27362679#1 27362679#2 27362778 27362597#1 315818425#0 315818425#1 738372001#0 738372001#1 27362612#0 27362612#1 27362612#2 27362612#3 27362612#4 27362612#5 27362612#6 321054001 27333684 608088722#0 27371557 27371558 607726780#1 607726780#2 607726780#3 562675720#0 562675720#1 614658427#0 614658427#1 687443349#1 652409298#0 -185017218#7"/>
    </vehicle>
    <vehicle id="56" type="coche_estandar" depart="112.00">