<?xml version="1.0" encoding="UTF-8"?>

<!-- generated on 2026-05-21 15:32:02.836869 by randomTrips.py v1_24_0+0000-b72eb3fabc8
<configuration>
    <net-file value="guanajuato_v2v.net.xml"/>
    <additional-files value="vehiculos_gto.add.xml"/>
    <route-file value="rutas_gto.rou.xml"/>
    <trip-attributes value="type=&quot;coche_estandar&quot;"/>
    <end value="1000.0"/>
    <period value="2.0"/>
</configuration>
-->

<routes xmlns:xsi="http://www.w3.org/2001/XMLSchema-instance" xsi:noNamespaceSchemaLocation="http://sumo.dlr.de/xsd/routes_file.xsd">
    <trip id="0" depart="0.00" from="607960667#4" to="605095030#1" type="coche_estandar"/>
    <trip id="1" depart="2.00" from="185017217" to="-185017039#1" type="coche_estandar"/>
    <trip id="2" depart="4.00" from="-652429496#1" to="189438786#0" type="coche_estandar"/>
    <trip id="3" depart="6.00" from="-185017039#2" to="-652429478#3" type="coche_estandar"/>
    <trip id="4" depart="8.00" from="479734311#6" to="246740914#1" type="coche_estandar"/>
    <trip id="5" depart="10.00" from="652429477#1" to="605900716" type="coche_estandar"/>
    <trip id="6" depart="12.00" from="-740552777" to="-610004534#0" type="coche_estandar"/>
    <trip id="7" depart="14.00" from="-506590786" to="-506590788#0" type="coche_estandar"/>
    <trip id="8" depart="16.00" from="1420501863#1" to="27320250#0" type="coche_estandar"/>
    <trip id="9" depart="18.00" from="652429493#1" to="27371558" type="coche_estandar"/>
    <trip id="10" depart="20.00" from="652512531#1" to="27333684" type="coche_estandar"/>
    <trip id="11" depart="22.00" from="605633283#2-AddedOffRampEdge" to="-185017218#3" type="coche_estandar"/>
    <trip id="12" depart="24.00" from="-652429502#1" to="-687390284" type="coche_estandar"/>
    <trip id="13" depart="26.00" from="321226267#0" to="1068563016#1" type="coche_estandar"/>
    <trip id="14" depart="28.00" from="1089593869" to="-652429489#2" type="coche_estandar"/>
    <trip id="15" depart="30.00" from="479734311#4" to="27371514#1" type="coche_estandar"/>
    <trip id="16" depart="32.00" from="84721698#1" to="479734311#4" type="coche_estandar"/>
    <trip id="17" depart="34.00" from="246742533#2" to="605617913#1" type="coche_estandar"/>
    <trip id="18" depart="36.00" from="652429503#2" to="614482176#1" type="coche_estandar"/>
    <trip id="19" depart="38.00" from="-652429503#0" to="-185017039#11" type="coche_estandar"/>
    <trip id="20" depart="40.00" from="-652429491" to="700370437" type="coche_estandar"/>
    <trip id="21" depart="42.00" from="689149456" to="188429806#2" type="coche_estandar"/>
    <trip id="22" depart="44.00" from="27332073#0" to="687386403" type="coche_estandar"/>
    <trip id="23" depart="46.00" from="894537765" to="189438788#1" type="coche_estandar"/>
    <trip id="24" depart="48.00" from="-374350878" to="-185017218#4" type="coche_estandar"/>
    <trip id="25" depart="50.00" from="649320448#0" to="185017225#0" type="coche_estandar"/>
    <trip id="26" depart="52.00" from="83520561#1" to="652512531#0" type="coche_estandar"/>
    <trip id="27" depart="54.00" from="-185016574#0" to="607960667#14" type="coche_estandar"/>
    <trip id="28" depart="56.00" from="605094238#2" to="191928111#1" type="coche_estandar"/>
    <trip id="29" depart="58.00" from="188426791" to="740031395" type="coche_estandar"/>
    <trip id="30" depart="60.00" from="652910242#1" to="-652910242#0" type="coche_estandar"/>
    <trip id="31" depart="62.00" from="188927914#1" to="-614658427#1" type="coche_estandar"/>
    <trip id="32" depart="64.00" from="27362612#4" to="-610004042#4" type="coche_estandar"/>
    <trip id="33" depart="66.00" from="610004534#1" to="191928112#4" type="coche_estandar"/>
    <trip id="34" depart="68.00" from="614482184" to="189956398#0" type="coche_estandar"/>
    <trip id="35" depart="70.00" from="-1068563016#1" to="-700375178" type="coche_estandar"/>
    <trip id="36" depart="72.00" from="-689171208#2" to="-185017470#0" type="coche_estandar"/>
    <trip id="37" depart="74.00" from="652910243#0" to="735349620" type="coche_estandar"/>
    <trip id="38" depart="76.00" from="-652910242#0" to="652910241#0" type="coche_estandar"/>
    <trip id="39" depart="78.00" from="185017218#0" to="-652429491" type="coche_estandar"/>
    <trip id="40" depart="80.00" from="-652429483#2" to="-689171210#5" type="coche_estandar"/>
    <trip id="41" depart="82.00" from="84723459#0" to="562675720#0" type="coche_estandar"/>
    <trip id="42" depart="84.00" from="-740033045" to="27344326#6" type="coche_estandar"/>
    <trip id="43" depart="86.00" from="-652429503#1" to="-652429496#2" type="coche_estandar"/>
    <trip id="44" depart="88.00" from="652512530#1" to="-188429814#4" type="coche_estandar"/>
    <trip id="45" depart="90.00" from="-652478183#0" to="604418406" type="coche_estandar"/>
    <trip id="46" depart="92.00" from="691998733" to="27320434#2" type="coche_estandar"/>
    <trip id="47" depart="94.00" from="188429806#1" to="614488320" type="coche_estandar"/>
    <trip id="48" depart="96.00" from="652429478#1" to="-652409298#1" type="coche_estandar"/>
    <trip id="49" depart="98.00" from="-554749548#1" to="185017473#0" type="coche_estandar"/>
    <trip id="50" depart="100.00" from="185017218#0" to="188429814#3" type="coche_estandar"/>
    <trip id="51" depart="102.00" from="652512531#1" to="-652512530#0" type="coche_estandar"/>
    <trip id="52" depart="104.00" from="-652409298#0" to="188427144#1" type="coche_estandar"/>
    <trip id="53" depart="106.00" from="-652512530#0" to="689171210#0" type="coche_estandar"/>
    <trip id="54" depart="108.00" from="185017472#2" to="652512531#0" type="coche_estandar"/>
    <trip id="55" depart="110.00" from="191928114#2" to="-185017218#7" type="coche_estandar"/>
    <trip id="56" depart="112.00" from="895546913#2" to="652429500#0" type="coche_estandar"/>
    <trip id="57" depart="114.00" from="767340493" to="689171210#4" type="coche_estandar"/>
    <trip id="58" depart="116.00" from="652478183#1" to="-610293809" type="coche_estandar"/>
    <trip id="59" depart="118.00" from="188429815#1" to="-652429492#1" type="coche_estandar"/>
    <trip id="60" depart="120.00" from="1420501863#1" to="84720847#1" type="coche_estandar"/>
    <trip id="61" depart="122.00" from="188427141#0" to="185017225#1" type="coche_estandar"/>
    <trip id="62" depart="124.00" from="740552781" to="84723459#0" type="coche_estandar"/>
    <trip id="63" depart="126.00" from="-610004535#1" to="-687683726#0" type="coche_estandar"/>
    <trip id="64" depart="128.00" from="767340493" to="27334544#0" type="coche_estandar"/>
    <trip id="65" depart="130.00" from="189956407" to="610004042#3" type="coche_estandar"/>
    <trip id="66" depart="132.00" from="-188427144#1" to="27344326#2" type="coche_estandar"/>
    <trip id="67" depart="134.00" from="189149005#1" to="652478188#1" type="coche_estandar"/>
    <trip id="68" depart="136.00" from="-610227739#0" to="740552776" type="coche_estandar"/>
    <trip id="69" depart="138.00" from="27344326#5" to="605094238#6" type="coche_estandar"/>
    <trip id="70" depart="140.00" from="66506785#0" to="-652512528#0" type="coche_estandar"/>
    <trip id="71" depart="142.00" from="27344326#5" to="27371558" type="coche_estandar"/>
    <trip id="72" depart="144.00" from="185017043#0" to="27344326#2" type="coche_estandar"/>
    <trip id="73" depart="146.00" from="189438794#0" to="689171216#3" type="coche_estandar"/>
    <trip id="74" depart="148.00" from="-652429485" to="607726780#6" type="coche_estandar"/>
    <trip id="75" depart="150.00" from="-689171210#7" to="610004042#7" type="coche_estandar"/>
    <trip id="76" depart="152.00" from="895546913#1" to="84723459#1" type="coche_estandar"/>
    <trip id="77" depart="154.00" from="652910246" to="652910243#0" type="coche_estandar"/>
    <trip id="78" depart="156.00" from="1089354485#1" to="-610004535#1" type="coche_estandar"/>
    <trip id="79" depart="158.00" from="652429496#2" to="607173632#3" type="coche_estandar"/>
    <trip id="80" depart="160.00" from="27362679#0" to="84720847#2" type="coche_estandar"/>
    <trip id="81" depart="162.00" from="506590791#1" to="-185016559" type="coche_estandar"/>
    <trip id="82" depart="164.00" from="652429486#1" to="-689149455" type="coche_estandar"/>
    <trip id="83" depart="166.00" from="-607960667#6" to="-588195003#1" type="coche_estandar"/>
    <trip id="84" depart="168.00" from="-562959930" to="27320250#1" type="coche_estandar"/>
    <trip id="85" depart="170.00" from="-1089354485#1" to="610293811" type="coche_estandar"/>
    <trip id="86" depart="172.00" from="-189769910#3" to="652910246" type="coche_estandar"/>
    <trip id="87" depart="174.00" from="652429496#2" to="27344326#1" type="coche_estandar"/>
    <trip id="88" depart="176.00" from="-689171208#2" to="687390283" type="coche_estandar"/>
    <trip id="89" depart="178.00" from="652409288" to="652512531#0" type="coche_estandar"/>
    <trip id="90" depart="180.00" from="687418291" to="-652429489#2" type="coche_estandar"/>
    <trip id="91" depart="182.00" from="-652512530#0" to="-562675720#0" type="coche_estandar"/>
    <trip id="92" depart="184.00" from="-610004535#0" to="689171210#7" type="coche_estandar"/>
    <trip id="93" depart="186.00" from="652512533#1" to="83520561#3" type="coche_estandar"/>
    <trip id="94" depart="188.00" from="-185017039#10" to="609830838#2" type="coche_estandar"/>
    <trip id="95" depart="190.00" from="-739667920" to="689171210#8" type="coche_estandar"/>
    <trip id="96" depart="192.00" from="652409298#3" to="652512533#0" type="coche_estandar"/>
    <trip id="97" depart="194.00" from="614658427#0" to="-562888670#1" type="coche_estandar"/>
    <trip id="98" depart="196.00" from="-652429498#1" to="652429488" type="coche_estandar"/>
    <trip id="99" depart="198.00" from="188427143#2" to="-689171208#2" type="coche_estandar"/>
    <trip id="100" depart="200.00" from="652409283#1" to="-652429503#0" type="coche_estandar"/>
    <trip id="101" depart="202.00" from="-185017039#1" to="-652409298#3" type="coche_estandar"/>
    <trip id="102" depart="204.00" from="-700375178" to="652512533#0" type="coche_estandar"/>
    <trip id="103" depart="206.00" from="479734306#0" to="185017039#10" type="coche_estandar"/>
    <trip id="104" depart="208.00" from="84720847#0" to="191928111#1" type="coche_estandar"/>
    <trip id="105" depart="210.00" from="700208164#1" to="-588195003#1" type="coche_estandar"/>
    <trip id="106" depart="212.00" from="83520561#1" to="-614658427#0" type="coche_estandar"/>
    <trip id="107" depart="214.00" from="27362612#2" to="189438793#1" type="coche_estandar"/>
    <trip id="108" depart="216.00" from="-1068563016#2" to="689171210#3" type="coche_estandar"/>
    <trip id="109" depart="218.00" from="-894464959" to="-188429814#3" type="coche_estandar"/>
    <trip id="110" depart="220.00" from="562959922" to="-740031396#0" type="coche_estandar"/>
    <trip id="111" depart="222.00" from="-689171208#3" to="185017039#9" type="coche_estandar"/>
    <trip id="112" depart="224.00" from="185016586#0" to="-687675945" type="coche_estandar"/>
    <trip id="113" depart="226.00" from="-1068563016#1" to="-687390280" type="coche_estandar"/>
    <trip id="114" depart="228.00" from="185017218#6" to="27334544#1" type="coche_estandar"/>
    <trip id="115" depart="230.00" from="554749548#0" to="188429814#1" type="coche_estandar"/>
    <trip id="116" depart="232.00" from="185017472#1" to="-652429492#1" type="coche_estandar"/>
    <trip id="117" depart="234.00" from="188429806#1" to="687443349#1" type="coche_estandar"/>
    <trip id="118" depart="236.00" from="652409288" to="-614482184" type="coche_estandar"/>
    <trip id="119" depart="238.00" from="-27320441#1" to="189443288#0" type="coche_estandar"/>
    <trip id="120" depart="240.00" from="652429487" to="610004042#6" type="coche_estandar"/>
    <trip id="121" depart="242.00" from="-652501074#1" to="188837038#1" type="coche_estandar"/>
    <trip id="122" depart="244.00" from="652478183#2" to="-188429814#5" type="coche_estandar"/>
    <trip id="123" depart="246.00" from="185017039#5" to="321226267#1" type="coche_estandar"/>
    <trip id="124" depart="248.00" from="-652429477#0" to="605633283#3" type="coche_estandar"/>
    <trip id="125" depart="250.00" from="610003675" to="610293810" type="coche_estandar"/>
    <trip id="126" depart="252.00" from="-562959925#1" to="185017470#1" type="coche_estandar"/>
    <trip id="127" depart="254.00" from="189438786#3" to="-185017218#7" type="coche_estandar"/>
    <trip id="128" depart="256.00" from="188427141#1" to="652429477#0" type="coche_estandar"/>
    <trip id="129" depart="258.00" from="562959925#0" to="84720847#3" type="coche_estandar"/>
    <trip id="130" depart="260.00" from="27344326#6" to="738372002#0" type="coche_estandar"/>
    <trip id="131" depart="262.00" from="66506785#1" to="27371514#4" type="coche_estandar"/>
    <trip id="132" depart="264.00" from="687386403" to="610003675" type="coche_estandar"/>
    <trip id="133" depart="266.00" from="-652512528#1" to="479734311#2" type="coche_estandar"/>
    <trip id="134" depart="268.00" from="-652429503#2" to="605633283#2" type="coche_estandar"/>
    <trip id="135" depart="270.00" from="605633283#3" to="-188427142" type="coche_estandar"/>
    <trip id="136" depart="272.00" from="185017039#0" to="191928114#2" type="coche_estandar"/>
    <trip id="137" depart="274.00" from="185017039#6" to="-652429488" type="coche_estandar"/>
    <trip id="138" depart="276.00" from="27332073#0" to="605633283#2-AddedOffRampEdge" type="coche_estandar"/>
    <trip id="139" depart="278.00" from="652512528#0" to="610293806#3" type="coche_estandar"/>
    <trip id="140" depart="280.00" from="185016556#0" to="-185016556#0" type="coche_estandar"/>
    <trip id="141" depart="282.00" from="-83520561#0" to="610004043" type="coche_estandar"/>
    <trip id="142" depart="284.00" from="652478193" to="739667920" type="coche_estandar"/>
    <trip id="143" depart="286.00" from="185017043#0" to="610004042#3" type="coche_estandar"/>
    <trip id="144" depart="288.00" from="191928112#3" to="27362612#6" type="coche_estandar"/>
    <trip id="145" depart="290.00" from="-652429497" to="-652429496#1" type="coche_estandar"/>
    <trip id="146" depart="292.00" from="185017225#1" to="-185017039#0" type="coche_estandar"/>
    <trip id="147" depart="294.00" from="610004042#0" to="652429497" type="coche_estandar"/>
    <trip id="148" depart="296.00" from="895546913#2" to="-83520561#2" type="coche_estandar"/>
    <trip id="149" depart="298.00" from="479734311#6" to="614482193#2" type="coche_estandar"/>
    <trip id="150" depart="300.00" from="740031395" to="-652429478#3" type="coche_estandar"/>
    <trip id="151" depart="302.00" from="27320276#2" to="-652429496#0" type="coche_estandar"/>
    <trip id="152" depart="304.00" from="605628210#0" to="610293807" type="coche_estandar"/>
    <trip id="153" depart="306.00" from="-614145100#1" to="27362778" type="coche_estandar"/>
    <trip id="154" depart="308.00" from="652429488" to="740552781" type="coche_estandar"/>
    <trip id="155" depart="310.00" from="-588195003#0" to="-185016588" type="coche_estandar"/>
    <trip id="156" depart="312.00" from="753019642" to="185016589#0" type="coche_estandar"/>
    <trip id="157" depart="314.00" from="607173632#5" to="-189438793#2" type="coche_estandar"/>
    <trip id="158" depart="316.00" from="-562888670#0" to="610293812" type="coche_estandar"/>
    <trip id="159" depart="318.00" from="652478183#2" to="27362612#3" type="coche_estandar"/>
    <trip id="160" depart="320.00" from="614482193#0" to="-753350475#2" type="coche_estandar"/>
    <trip id="161" depart="322.00" from="185017218#5" to="1148924934" type="coche_estandar"/>
    <trip id="162" depart="324.00" from="189149674#1" to="-753080571" type="coche_estandar"/>
    <trip id="163" depart="326.00" from="652478183#1" to="652429490" type="coche_estandar"/>
    <trip id="164" depart="328.00" from="-562959923#0" to="740552776" type="coche_estandar"/>
    <trip id="165" depart="330.00" from="321054001" to="652429495" type="coche_estandar"/>
    <trip id="166" depart="332.00" from="605633283#4" to="188426325" type="coche_estandar"/>
    <trip id="167" depart="334.00" from="607960667#17" to="753020360" type="coche_estandar"/>
    <trip id="168" depart="336.00" from="189956398#1" to="188927909#1" type="coche_estandar"/>
    <trip id="169" depart="338.00" from="188427146#1" to="27371514#2" type="coche_estandar"/>
    <trip id="170" depart="340.00" from="1420501863#1" to="-185017039#0" type="coche_estandar"/>
    <trip id="171" depart="342.00" from="652478188#0" to="-649320448#0" type="coche_estandar"/>
    <trip id="172" depart="344.00" from="-652429492#0" to="652409298#0" type="coche_estandar"/>
    <trip id="173" depart="346.00" from="188837038#1" to="610004535#1" type="coche_estandar"/>
    <trip id="174" depart="348.00" from="188837544" to="652409289#0" type="coche_estandar"/>
    <trip id="175" depart="350.00" from="605617911" to="-689171208#3" type="coche_estandar"/>
    <trip id="176" depart="352.00" from="27320441#1" to="188429818#1" type="coche_estandar"/>
    <trip id="177" depart="354.00" from="609830838#2" to="-740031396#0" type="coche_estandar"/>
    <trip id="178" depart="356.00" from="-652409283#1" to="-652429493#1" type="coche_estandar"/>
    <trip id="179" depart="358.00" from="-66506785#0" to="-554749548#1" type="coche_estandar"/>
    <trip id="180" depart="360.00" from="-652429477#0" to="-652429503#0" type="coche_estandar"/>
    <trip id="181" depart="362.00" from="189772700#0" to="-652910250#0" type="coche_estandar"/>
    <trip id="182" depart="364.00" from="83520561#4" to="27320250#1" type="coche_estandar"/>
    <trip id="183" depart="366.00" from="188429802#0" to="188426791" type="coche_estandar"/>
    <trip id="184" depart="368.00" from="-652409283#1" to="-185017220#0" type="coche_estandar"/>
    <trip id="185" depart="370.00" from="713104387" to="188837544" type="coche_estandar"/>
    <trip id="186" depart="372.00" from="652429489#2" to="185017039#11" type="coche_estandar"/>
    <trip id="187" depart="374.00" from="-188426788" to="-610004042#1" type="coche_estandar"/>
    <trip id="188" depart="376.00" from="27320276#1" to="-689171208#1" type="coche_estandar"/>
    <trip id="189" depart="378.00" from="84721709#1" to="-605095030#1" type="coche_estandar"/>
    <trip id="190" depart="380.00" from="610004535#1" to="27362679#2" type="coche_estandar"/>
    <trip id="191" depart="382.00" from="189438794#0" to="188427146#1" type="coche_estandar"/>
    <trip id="192" depart="384.00" from="185017472#1" to="652512530#1" type="coche_estandar"/>
    <trip id="193" depart="386.00" from="84721698#1" to="-689171208#2" type="coche_estandar"/>
    <trip id="194" depart="388.00" from="27371514#6" to="27371514#1" type="coche_estandar"/>
    <trip id="195" depart="390.00" from="-652429489#1" to="-652429490" type="coche_estandar"/>
    <trip id="196" depart="392.00" from="562675720#2" to="-610004535#0" type="coche_estandar"/>
    <trip id="197" depart="394.00" from="-614482193#0" to="-189438793#2" type="coche_estandar"/>
    <trip id="198" depart="396.00" from="-1089354485#0" to="188427146#1" type="coche_estandar"/>
    <trip id="199" depart="398.00" from="-652429503#2" to="607173632#7" type="coche_estandar"/>
    <trip id="200" depart="400.00" from="605633283#1" to="188429800#1" type="coche_estandar"/>
    <trip id="201" depart="402.00" from="614658427#0" to="315939642#3" type="coche_estandar"/>
    <trip id="202" depart="404.00" from="562888669#0" to="689171216#2" type="coche_estandar"/>
    <trip id="203" depart="406.00" from="185017218#2" to="246740914#1" type="coche_estandar"/>
    <trip id="204" depart="408.00" from="652429492#1" to="-188429814#4" type="coche_estandar"/>
    <trip id="205" depart="410.00" from="-610293811" to="-689171210#2" type="coche_estandar"/>
    <trip id="206" depart="412.00" from="610003674#1" to="27320426" type="coche_estandar"/>
    <trip id="207" depart="414.00" from="713105030" to="189150164#2" type="coche_estandar"/>
    <trip id="208" depart="416.00" from="-185017218#5" to="185017473#1" type="coche_estandar"/>
    <trip id="209" depart="418.00" from="-694536538" to="-652512530#1" type="coche_estandar"/>
    <trip id="210" depart="420.00" from="-479734304" to="740552777" type="coche_estandar"/>
    <trip id="211" depart="422.00" from="652429499" to="27332073#0" type="coche_estandar"/>
    <trip id="212" depart="424.00" from="740031396#0" to="895546913#2" type="coche_estandar"/>
    <trip id="213" depart="426.00" from="588195003#1" to="-652910244" type="coche_estandar"/>
    <trip id="214" depart="428.00" from="-185017218#5" to="610004534#1" type="coche_estandar"/>
    <trip id="215" depart="430.00" from="188429802#1" to="562675720#2" type="coche_estandar"/>
    <trip id="216" depart="432.00" from="27332073#1" to="479734306#1" type="coche_estandar"/>
    <trip id="217" depart="434.00" from="-753087768" to="-740552780" type="coche_estandar"/>
    <trip id="218" depart="436.00" from="562959931" to="652512528#1" type="coche_estandar"/>
    <trip id="219" depart="438.00" from="-687390280" to="735347505" type="coche_estandar"/>
    <trip id="220" depart="440.00" from="188427141#0" to="-689171216#0" type="coche_estandar"/>
    <trip id="221" depart="442.00" from="191927591#1" to="185017218#2" type="coche_estandar"/>
    <trip id="222" depart="444.00" from="-652409290" to="-84723459#1" type="coche_estandar"/>
    <trip id="223" depart="446.00" from="610004042#5" to="315939642#3" type="coche_estandar"/>
    <trip id="224" depart="448.00" from="610004044" to="-652429484#2" type="coche_estandar"/>
    <trip id="225" depart="450.00" from="191928114#1" to="689171210#5" type="coche_estandar"/>
    <trip id="226" depart="452.00" from="185017470#0" to="605900716" type="coche_estandar"/>
    <trip id="227" depart="454.00" from="27362612#4" to="-652478183#2" type="coche_estandar"/>
    <trip id="228" depart="456.00" from="246740914#1" to="-27334544#0" type="coche_estandar"/>
    <trip id="229" depart="458.00" from="84721698#4" to="688444837#1" type="coche_estandar"/>
    <trip id="230" depart="460.00" from="607173632#7" to="189438788#0" type="coche_estandar"/>
    <trip id="231" depart="462.00" from="84618101#4" to="-652501074#0" type="coche_estandar"/>
    <trip id="232" depart="464.00" from="689171210#2" to="189438786#3" type="coche_estandar"/>
    <trip id="233" depart="466.00" from="185017039#5" to="689171216#2" type="coche_estandar"/>
    <trip id="234" depart="468.00" from="189149676#2" to="652429489#3" type="coche_estandar"/>
    <trip id="235" depart="470.00" from="-66506785#0" to="-689149454" type="coche_estandar"/>
    <trip id="236" depart="472.00" from="27334544#0" to="895546913#1" type="coche_estandar"/>
    <trip id="237" depart="474.00" from="188837039" to="-610004042#0" type="coche_estandar"/>
    <trip id="238" depart="476.00" from="189956398#1" to="-753350475#0" type="coche_estandar"/>
    <trip id="239" depart="478.00" from="246740914#1" to="191929033#1" type="coche_estandar"/>
    <trip id="240" depart="480.00" from="-652409293" to="605633283#4" type="coche_estandar"/>
    <trip id="241" depart="482.00" from="610293811" to="-185017218#1" type="coche_estandar"/>
    <trip id="242" depart="484.00" from="609830838#1" to="607173632#6" type="coche_estandar"/>
    <trip id="243" depart="486.00" from="562888670#1" to="652429489#3" type="coche_estandar"/>
    <trip id="244" depart="488.00" from="-185017218#2" to="189150165#1" type="coche_estandar"/>
    <trip id="245" depart="490.00" from="27344326#1" to="652512536" type="coche_estandar"/>
    <trip id="246" depart="492.00" from="189443288#1" to="188429802#2" type="coche_estandar"/>
    <trip id="247" depart="494.00" from="607726780#1" to="185017043#1" type="coche_estandar"/>
    <trip id="248" depart="496.00" from="554749548#0" to="-610004042#6" type="coche_estandar"/>
    <trip id="249" depart="498.00" from="188429802#0" to="753087768" type="coche_estandar"/>
    <trip id="250" depart="500.00" from="-740033045" to="605633283#1" type="coche_estandar"/>
    <trip id="251" depart="502.00" from="479734311#6" to="652478188#0" type="coche_estandar"/>
    <trip id="252" depart="504.00" from="652478192" to="652512530#0" type="coche_estandar"/>
    <trip id="253" depart="506.00" from="-189438793#2" to="374350878" type="coche_estandar"/>
    <trip id="254" depart="508.00" from="689171210#0" to="894464959" type="coche_estandar"/>
    <trip id="255" depart="510.00" from="609830838#2" to="188358716" type="coche_estandar"/>
    <trip id="256" depart="512.00" from="-554749548#2" to="479734306#0" type="coche_estandar"/>
    <trip id="257" depart="514.00" from="-185017225#0" to="652409293" type="coche_estandar"/>
    <trip id="258" depart="516.00" from="-610004042#1" to="189956398#1" type="coche_estandar"/>
    <trip id="259" depart="518.00" from="27320276#4" to="652409283#1" type="coche_estandar"/>
    <trip id="260" depart="520.00" from="-652478188#0" to="688444837#1" type="coche_estandar"/>
    <trip id="261" depart="522.00" from="-609830840" to="188429810#1" type="coche_estandar"/>
    <trip id="262" depart="524.00" from="-652512533#0" to="-652512534" type="coche_estandar"/>
    <trip id="263" depart="526.00" from="-610227739#1" to="188427141#0" type="coche_estandar"/>
    <trip id="264" depart="528.00" from="-753076922" to="27344326#5" type="coche_estandar"/>
    <trip id="265" depart="530.00" from="374350878" to="185017225#2" type="coche_estandar"/>
    <trip id="266" depart="532.00" from="188429814#6" to="-652478183#0" type="coche_estandar"/>
    <trip id="267" depart="534.00" from="27320284#4" to="27320441#4" type="coche_estandar"/>
    <trip id="268" depart="536.00" from="84721709#0" to="-687675945" type="coche_estandar"/>
    <trip id="269" depart="538.00" from="84618101#2" to="562959925#1" type="coche_estandar"/>
    <trip id="270" depart="540.00" from="605094238#7" to="610004042#0" type="coche_estandar"/>
    <trip id="271" depart="542.00" from="-185017470#1" to="27362679#2" type="coche_estandar"/>
    <trip id="272" depart="544.00" from="-687386402" to="652409298#1" type="coche_estandar"/>
    <trip id="273" depart="546.00" from="27362612#3" to="-83520561#4" type="coche_estandar"/>
    <trip id="274" depart="548.00" from="321226267#0" to="315818425#0" type="coche_estandar"/>
    <trip id="275" depart="550.00" from="562675720#1" to="652429501" type="coche_estandar"/>
    <trip id="276" depart="552.00" from="479734311#3" to="-689171210#3" type="coche_estandar"/>
    <trip id="277" depart="554.00" from="185017472#0" to="27334544#1" type="coche_estandar"/>
    <trip id="278" depart="556.00" from="189956404#0" to="767340493" type="coche_estandar"/>
    <trip id="279" depart="558.00" from="652429494" to="-652512536" type="coche_estandar"/>
    <trip id="280" depart="560.00" from="652429490" to="188927908#1" type="coche_estandar"/>
    <trip id="281" depart="562.00" from="652429478#0" to="610004042#2" type="coche_estandar"/>
    <trip id="282" depart="564.00" from="753350475#1" to="652512530#1" type="coche_estandar"/>
    <trip id="283" depart="566.00" from="607726780#3" to="84618101#1" type="coche_estandar"/>
    <trip id="284" depart="568.00" from="753350475#2" to="652429478#1" type="coche_estandar"/>
    <trip id="285" depart="570.00" from="-895546913#2" to="649320448#0" type="coche_estandar"/>
    <trip id="286" depart="572.00" from="188427141#0" to="605094238#3" type="coche_estandar"/>
    <trip id="287" depart="574.00" from="27320250#0" to="689142560" type="coche_estandar"/>
    <trip id="288" depart="576.00" from="-652429497" to="-188426788" type="coche_estandar"/>
    <trip id="289" depart="578.00" from="652429489#3" to="687683726#0" type="coche_estandar"/>
    <trip id="290" depart="580.00" from="-689149454" to="185017039#9" type="coche_estandar"/>
    <trip id="291" depart="582.00" from="562959931" to="610003675" type="coche_estandar"/>
    <trip id="292" depart="584.00" from="738372001#0" to="185017220#1" type="coche_estandar"/>
    <trip id="293" depart="586.00" from="188837038#1" to="185017039#9" type="coche_estandar"/>
    <trip id="294" depart="588.00" from="740031396#1" to="-185017039#11" type="coche_estandar"/>
    <trip id="295" depart="590.00" from="1089593869" to="188427142" type="coche_estandar"/>
    <trip id="296" depart="592.00" from="740031396#0" to="652501074#1" type="coche_estandar"/>
    <trip id="297" depart="594.00" from="-562675720#0" to="605617915" type="coche_estandar"/>
    <trip id="298" depart="596.00" from="191928111#1" to="83520561#5" type="coche_estandar"/>
    <trip id="299" depart="598.00" from="562888670#0" to="479734311#6" type="coche_estandar"/>
    <trip id="300" depart="600.00" from="614488320" to="-652501074#0" type="coche_estandar"/>
    <trip id="301" depart="602.00" from="-189438793#2" to="610293806#2" type="coche_estandar"/>
    <trip id="302" depart="604.00" from="-652429489#0" to="-652429493#1" type="coche_estandar"/>
    <trip id="303" depart="606.00" from="-610004042#3" to="687418291" type="coche_estandar"/>
    <trip id="304" depart="608.00" from="-1089354485#0" to="652512530#0" type="coche_estandar"/>
    <trip id="305" depart="610.00" from="-652478183#0" to="-700375178" type="coche_estandar"/>
    <trip id="306" depart="612.00" from="-614482193#0" to="-185017220#1" type="coche_estandar"/>
    <trip id="307" depart="614.00" from="607960667#9" to="189772700#0" type="coche_estandar"/>
    <trip id="308" depart="616.00" from="609830838#1" to="188837039" type="coche_estandar"/>
    <trip id="309" depart="618.00" from="614482176#1" to="189438794#0" type="coche_estandar"/>
    <trip id="310" depart="620.00" from="738372001#0" to="-185017218#1" type="coche_estandar"/>
    <trip id="311" depart="622.00" from="614482193#2" to="652512535#0" type="coche_estandar"/>