<?xml version="1.0" encoding="UTF-8"?>

<!-- generated on 2026-05-21 15:32:25.232761 by randomTrips.py v1_24_0+0000-b72eb3fabc8
<configuration>
    <net-file value="santafe_v2v.net.xml"/>
    <additional-files value="vehiculos_stfe.add.xml"/>
    <route-file value="rutas_stfe.rou.xml"/>
    <trip-attributes value="type=&quot;coche_estandar&quot;"/>
    <end value="1000.0"/>
    <period value="2.0"/>
</configuration>
-->

<!-- generated on 2026-05-21 15:32:25 by Eclipse SUMO duarouter Version 1.24.0
<duarouterConfiguration xmlns:xsi="http://www.w3.org/2001/XMLSchema-instance" xsi:noNamespaceSchemaLocation="http://sumo.dlr.de/xsd/duarouterConfiguration.xsd">

    <input>
        <net-file value="santafe_v2v.net.xml"/>
        <additional-files value="vehiculos_stfe.add.xml"/>
        <route-files value="trips.trips.xml"/>
    </input>

    <output>
        <output-file value="rutas_stfe.rou.xml"/>
        <alternatives-output value="NUL"/>
    </output>

    <time>
        <begin value="0"/>
        <end value="1000.0"/>
    </time>

    <report>
        <no-warnings value="true"/>
        <ignore-errors value="true"/>
        <no-step-log value="true"/>
    </report>

</duarouterConfiguration>
-->

<routes xmlns:xsi="http://www.w3.org/2001/XMLSchema-instance" xsi:noNamespaceSchemaLocation="http://sumo.dlr.de/xsd/routes_file.xsd">
    <vType id="coche_estandar" length="4.50" maxSpeed="40.00" vClass="passenger" emissionClass="HBEFA4/PC_petrol_Euro-6c" accel="2.6" decel="4.5" sigma="0.5"/>
    <vehicle id="0" type="coche_estandar" depart="0.00">
        <route edges="569465874#2 569465874#3 127699797#1 914739223 570392407#5 66779640 96663429#1 611387511#0 611387511#1 569092394#1 569092397#0 569092397#1 569092396 569092395#0"/>
    </vehicle>
    <vehicle id="1" type="coche_estandar" depart="2.00">
        <route edges="-130507169#0 130507178 -803442649 130507176 -130507213 202233560#2 202233560#3 -130507168#2 -130507168#1 -130507168#0 130507168#0"/>
    </vehicle>
    <vehicle id="2" type="coche_estandar" depart="4.00">
        <route edges="615309646#1 134976509#7 134976516#0 134976516#1 30971644#2 611387510 391847351#0 391847351#1 391847351#2 391847351#3 391847351#4 30497189#0 30497189#1 -127699786#2"/>
    </vehicle>
    <vehicle id="3" type="coche_estandar" depart="6.00">
        <route edges="615309645#1 922637491 922637493 922637492#0 922637492#1 25026494 1117521596 25026516 847800382#1 847800382#2-AddedOnRampEdge 847800382#2 847269299#1-AddedOnRampEdge 847269299#1 847269299#2 847269299#3 25026548 1085728453#3 615309646#0 615309646#1 134976509#7 134976516#0 134976516#1 30971644#2 611387510 391847351#0 391847351#1 391847351#2 391847351#3 391847351#4 30497189#0 30497189#1 30497189#2 391847341-AddedOnRampEdge 391847341 265347392 94792574 96663450 1175821867#0 1175821867#1 1175821868 1161215336#0 391847330#0 391847330#1 391847330#2 391847330#3 391847330#4 391847330#5 391847330#6 391847330#7 391847330#9 391847330#10 391847330#11 569103370#0 569103370#1 569103369#0 569103369#1 569103369#2 569103369#3 569103369#6 569103369#7 569103369#8 569103369#9 569103369#10"/>
    </vehicle>
    <vehicle id="4" type="coche_estandar" depart="8.00">
        <route edges="1361349843#1 847276258#0 847276258#1 30291491 570392407#4 570392407#5 66779640 96663429#1 611387511#0 611387511#1 569092394#1 569092397#0 569092397#1 569092396 569092395#0 569092395#1 394914098#1 1160964646 1160964721 127696824#0"/>
    </vehicle>
    <vehicle id="5" type="coche_estandar" depart="10.00">
        <route edges="922637493 922637492#0 922637492#1 25026494 1117521596 25026516 847800382#1 847800382#2-AddedOnRampEdge 847800382#2 847269299#1-AddedOnRampEdge 847269299#1 847269299#2 847269299#3 25026548 1085728453#3 615309646#0 615309646#1 134976509#7 134976516#0 134976516#1 30971644#2 611387510 391847351#0 391847351#1 391847351#2 391847351#3 391847351#4 30497189#0 30497189#1 30497189#2 391847341-AddedOnRampEdge 391847341 265347392 94792574 96663450 1175821867#0 1175821867#1 1175821868 1161215336#0 391847330#0 391847330#1 391847330#2 391847330#3 391847330#4 391847330#5 391847330#6 391847330#7 391847330#9 391847330#10 391847330#11 569103370#0 569103370#1 569103369#0 569103369#1 569103369#2 569103369#3 569103369#6 569103369#7 569103369#8 569103369#9 569103369#10 265347385#1 127699800#0 127699800#1 42639771#0 42639771#1 394720553#1 -1486430351 570392407#0 570392407#1 570392407#2 96674861 580970328#0 580970328#1 580970328#2 580970326 580970326-AddedOffRampEdge 1418720807"/>
    </vehicle>
    <vehicle id="6" type="coche_estandar" depart="12.00">
        <route edges="615309646#0 615309646#1 134976509#7 134976516#0 134976516#1 30971644#2 611387510 391847351#0 391847351#1 391847351#2 391847351#3 391847351#4 30497189#0 30497189#1 30497189#2 391847341-AddedOnRampEdge 391847341 265347392 94792574 96663450 1175821867#0 1175821867#1 1175821868 1161215336#0 391847330#0 391847330#1 391847330#2 391847330#3 391847330#4 391847330#5 391847330#6 391847330#7 391847330#9 391847330#10 391847330#11 569103370#0 569103370#1 569103369#0 569103369#1 569103369#2 569103369#3 569103369#6 569103369#7 569103369#8 569103369#9 569103369#10 265347385#1 127699800#0 127699800#1 42639771#0 42639771#1 394720553#1 394720552#0 394720552#1 394720552#2 569465872#0"/>
    </vehicle>
    <vehicle id="7" type="coche_estandar" depart="14.00">
        <route edges="30497189#2 391847341-AddedOnRampEdge 391847341 265347392 94792574 96663450"/>
    </vehicle>
    <vehicle id="8" type="coche_estandar" depart="16.00">
        <route edges="-685752686#0 130507179 -130507169#1 -130507169#0 130507178 -803442649 130507176 -130507213 202233560#2 202233560#3 -130507168#2 879239736 130507170 879239735 -879239735 130507181"/>
    </vehicle>
    <vehicle id="9" type="coche_estandar" depart="18.00">
        <route edges="452540974#0 452540974#1 1175821867#0 1175821867#1 1175821868 1161215336#0 391847330#0 391847330#1 391847330#2 391847330#3 391847330#4 391847330#5 391847330#6 391847330#7 391847330#9 391847330#10 391847330#11 569103370#0 569103370#1 569103369#0 569103369#1 569103369#2 569103369#3 569103369#6 569103369#7 569103369#8 569103369#9 569103369#10 265347385#1 127699800#0 127699800#1 611387511#0 611387511#1 569092394#1 569092397#0 569092397#1 202165074#0 202165074#1 202165074#2"/>
    </vehicle>
    <vehicle id="10" type="coche_estandar" depart="20.00">
        <route edges="49886826 611387511#0 611387511#1 569092394#1 569092397#0 569092397#1 202165074#0 202165074#1 202165074#2 49886955#0 49886955#1 49886955#2 49886955#3 391847330#0 391847330#1 391847330#2 391847330#3 391847330#4 391847330#5 391847330#6 391847330#7 391847330#9 391847330#10 391847330#11 569103370#0 569103370#1 569103369#0 569103369#1 569103369#2 569103369#3 569103369#6 569103369#7 569103369#8 569103369#9 569103369#10 265347385#1 394222817 570350747 569103371#1 569103371#2 569103371#3 394222818"/>
    </vehicle>
    <vehicle id="11" type="coche_estandar" depart="22.00">
        <route edges="127699786#0 127699786#1 127699786#2 30497189#2 391847341-AddedOnRampEdge 391847341 265347392 94792574 96663450 1175821867#0 1175821867#1 1175821868 1161215336#0 391847330#0 391847330#1 391847330#2 391847330#3 391847330#4 391847330#5 391847330#6 391847330#7 391847330#9 391847330#10 391847330#11 569103370#0 569103370#1 569103369#0 569103369#1 569103369#2 569103369#3 569103369#6 569103369#7 569103369#8 569103369#9 569103369#10 265347385#1 127699800#0 127699800#1 42639771#0 42639771#1 394720553#1 394720552#0 394720552#1 394720552#2 569465872#0"/>
    </vehicle>
    <vehicle id="12" type="coche_estandar" depart="24.00">
        <route edges="391847330#1 391847330#2 391847330#3 391847330#4 391847330#5 391847330#6 391847330#7 391847330#9 391847330#10 391847330#11 569103370#0 569103370#1 569103369#0 569103369#1 569103369#2 569103369#3 569103369#6 569103369#7 569103369#8 569103369#9 569103369#10 265347385#1 127699800#0 127699800#1 611387511#0 611387511#1 569092394#1 569092397#0"/>
    </vehicle>
    <vehicle id="13" type="coche_estandar" depart="26.00">
        <route edges="130507171 130507169#1 685752685 685752686#0 -685752686#0 130507179 -130507169#1"/>
    </vehicle>
    <vehicle id="14" type="coche_estandar" depart="28.00">
        <route edges="1350430499#0 1350430499#1 533281878#0 533281878#1 533281878#1-AddedOffRampEdge 96663435 569092395#0 569092395#1 394914098#1 1160964646 1160964721 127696824#0 127696824#1 127696824#2 30971644#0 134976512#0 134976512#1 134976509#9"/>
    </vehicle>
    <vehicle id="15" type="coche_estandar" depart="30.00">
        <route edges="130507168#0 130507168#1 879239736 130507170 879239735"/>
    </vehicle>
    <vehicle id="16" type="coche_estandar" depart="32.00">
        <route edges="847269299#2 847269299#3 25026548 1085728453#3 615309646#0 615309646#1 134976509#7 134976516#0 134976516#1 30971644#2 611387510 391847351#0 391847351#1 607127533 607127531#1 607127531#2 607127531#3 1352219592"/>
    </vehicle>
    <vehicle id="17" type="coche_estandar" depart="34.00">
        <route edges="49886955#2 49886955#3 391847330#0 391847330#1 391847330#2 391847330#3 391847330#4 391847330#5 391847330#6 391847330#7 391847330#9 391847330#10 391847330#11 569103370#0 569103370#1 569103369#0 569103369#1 569103369#2 569103369#3 569103369#6 569103369#7 569103369#8 569103369#9 569103369#10 265347385#1 127699800#0 127699800#1 42639771#0 42639771#1 394720553#1 -1486430351 570392407#0 570392407#1 570392407#2 96674861 580970328#0 580970328#1 580970328#2 25026507"/>
    </vehicle>
    <vehicle id="18" type="coche_estandar" depart="36.00">
        <route edges="134976509#3 134976509#4 134976509#5 615309645#0 615309646#1 134976509#7 134976516#0 134976516#1 30971644#2 96663467#0 96663467#1 96663467#2 96663467#3 96663467#4 30291980#1 134976508#0 134976508#1 134976509#2"/>
    </vehicle>
    <vehicle id="19" type="coche_estandar" depart="38.00">
        <route edges="391847330#11 569103370#0 569103370#1 569103369#0 569103369#1 569103369#2 569103369#3 569103369#6 569103369#7 569103369#8 569103369#9 569103369#10 265347385#1 127699800#0 127699800#1 611387511#0 611387511#1 569092394#1 569092397#0 569092397#1 569092396 569092395#0 569092395#1 394914098#1 1160964646 1160964721 127696824#0 127696824#1 127696824#2 30971644#0 30971644#1 30971644#2 96663467#0 96663467#1 134976515#1 134976515#2 134976509#5 615309645#0 615309646#1 134976509#7"/>
    </vehicle>
    <vehicle id="20" type="coche_estandar" depart="40.00">
        <route edges="391847332#1 391847332#2 94792574 96663450 1175821867#0 1175821867#1 1175821868 1350430499#0 1350430499#1 533281878#0 533281878#1 533281878#1-AddedOffRampEdge 96663435 569092395#0 569092395#1 394914098#1 1082173941 265347388#0 265347388#1 922637492#0 922637492#1 25026494 1117521596 1117521597 1117521598 847796007#0 847796007#1"/>
    </vehicle>
    <vehicle id="21" type="coche_estandar" depart="42.00">
        <route edges="96674861 580970328#0 580970328#1 96674860 570392407#1 570392407#2 127696822#0 30293739#1"/>
    </vehicle>
    <vehicle id="22" type="coche_estandar" depart="44.00">
        <route edges="-879223896 685752690 130507180 -685752688 130507177 -685752686#1 202233549 -202233549"/>
    </vehicle>
    <vehicle id="23" type="coche_estandar" depart="46.00">
        <route edges="1085728453#1 1085728453#2 1085728453#3 615309646#0 615309646#1 134976509#7 134976516#0 134976516#1 30971644#2 611387510 391847351#0 391847351#1 391847351#2 391847351#3 391847351#4 30497189#0 30497189#1 30497189#2 391847341-AddedOnRampEdge 391847341 265347392 94792574 96663450 1175821867#0 1175821867#1 1175821868 1350430499#0 1350430499#1 533281878#0 533281878#1 533281878#1-AddedOffRampEdge 96663435 569092395#0 569092395#1 394914098#1"/>
    </vehicle>
    <vehicle id="24" type="coche_estandar" depart="48.00">
        <route edges="96674860 570392407#1 570392407#2 127696822#0 30293739#1 30293739#2 394720552#0 394720552#1 394720552#2 569465872#0 569465872#1 569465872#2 30291979#1 30291979#2 30291979#3 30293740#1 30293740#2 30293740#3 30293740#4 30293740#5 30293740#6"/>
    </vehicle>
    <vehicle id="25" type="coche_estandar" depart="50.00">
        <route edges="569092397#0 569092397#1 569092396 569092395#0 569092395#1 394914098#1 1160964646 1160964721 127696824#0 127696824#1 127696824#2 30971644#0 30971644#1 30971644#2 611387510 391847351#0 391847351#1 391847351#2 391847351#3 391847351#4 30497189#0 30497189#1 30497189#2"/>
    </vehicle>
    <vehicle id="26" type="coche_estandar" depart="52.00">
        <route edges="1085728453#2 1085728453#3 615309646#0 615309646#1 134976509#7 134976509#8 134976509#9 134976509#10 265347391 569092398 265347388#0"/>
    </vehicle>
    <vehicle id="27" type="coche_estandar" depart="54.00">
        <route edges="265347391 127699803 127696824#0 127696824#1 127696824#2 30971644#0 30971644#1 30971644#2 96663467#0 96663467#1 134976515#1 134976515#2 134976509#5 615309645#0 615309645#1 922637491"/>
    </vehicle>
    <vehicle id="28" type="coche_estandar" depart="56.00">
        <route edges="847269299#1-AddedOnRampEdge 847269299#1 847269299#2 847269299#3 25026548 1085728453#3 615309646#0 615309646#1 134976509#7 134976509#8"/>
    </vehicle>
    <vehicle id="29" type="coche_estandar" depart="58.00">
        <route edges="30291983#3 30291983#4 391847351#0 391847351#1 391847351#2 391847351#3 391847351#4 30497189#0 30497189#1 30497189#2 391847341-AddedOnRampEdge 391847341 265347392 94792574 96663450 1175821867#0 1175821867#1 1175821868 1161215336#0 391847330#0 391847330#1 391847330#2 391847330#3 391847330#4 391847330#5 391847330#6 391847330#7 391847330#9 391847330#10 391847330#11 569103370#0 569103370#1 569103369#0 569103369#1 569103369#2 569103369#3 569103369#6 569103369#7 569103369#8 569103369#9 569103369#10 265347385#1 127699800#0"/>
    </vehicle>
    <vehicle id="30" type="coche_estandar" depart="60.00">
        <route edges="394222818 569103369#0 569103369#1 569103369#2 569103369#3 569103369#6 569103369#7 569103369#8 569103369#9 569103369#10 265347385#1 127699800#0 127699800#1 42639771#0 42639771#1 569465874#1 569465874#2 569465874#3 127699797#1 30293739#0 127696822#1"/>
    </vehicle>
    <vehicle id="31" type="coche_estandar" depart="62.00">
        <route edges="580970328#1 96674860 570392407#1 570392407#2 127696822#0 30293739#1 30293739#2 394720552#0 394720552#1 394720552#2 569465872#0 569465872#1 569465872#2 30291979#1 30291979#2 30291979#3 30293740#1 30293740#2 30293740#3 30293740#4 30293740#5 30293740#6"/>
    </vehicle>
    <vehicle id="32" type="coche_estandar" depart="64.00">
        <route edges="-127699786#1 -127699786#0 127699786#0 127699786#1 127699786#2 30497189#2 391847341-AddedOnRampEdge 391847341 265347392 94792574 96663450 1175821867#0 1175821867#1 1175821868 1161215336#0 391847330#0 391847330#1 391847330#2 391847330#3 391847330#4 391847330#5 391847330#6 391847330#7 391847330#9 391847330#10 391847330#11 569103370#0 569103370#1 569103369#0 569103369#1 569103369#2 569103369#3 569103369#6 569103369#7 569103369#8 569103369#9 569103369#10 265347385#1 127699800#0 127699800#1 42639771#0 42639771#1 394720553#1 -1486430351 570392407#0 570392407#1 570392407#2 570392407#4 570392407#5 580970327#0 96674826 1361349843#0 1361349843#1"/>
    </vehicle>
    <vehicle id="33" type="coche_estandar" depart="66.00">
        <route edges="847269299#2 847269299#3 25026548 1085728453#3 615309646#0 615309646#1 134976509#7 134976516#0 134976516#1 30971644#2 611387510 391847351#0 391847351#1 391847351#2 391847351#3 391847351#4 30497189#0 30497189#1 30497189#2 391847341-AddedOnRampEdge 391847341 391847345#0 391847345#1 913308237#1"/>
    </vehicle>
    <vehicle id="34" type="coche_estandar" depart="68.00">
        <route edges="580970326-AddedOffRampEdge 1418720807 1161214183-AddedOnRampEdge"/>
    </vehicle>
    <vehicle id="35" type="coche_estandar" depart="70.00">
        <route edges="96674860 570392407#1 570392407#2 570392407#4 570392407#5 66779640 96663429#1 611387511#0 611387511#1 569092394#1 569092397#0 569092397#1 569092396 569092395#0 569092395#1 394914098#1 1160964646 1160964721 127696824#0 127696824#1 127696824#2 30971644#0 30971644#1 30971644#2 611387510 391847351#0 391847351#1 607127533 607127531#1 607127531#2 607127531#3 1352219592 488378187"/>
    </vehicle>
    <vehicle id="36" type="coche_estandar" depart="72.00">
        <route edges="265347385#1 127699800#0 127699800#1 42639771#0 42639771#1 394720553#1 394720552#0 394720552#1 394720552#2 569465872#0 569465872#1 569465872#2 30291979#1 30291979#2 30291979#3 30293740#1"/>
    </vehicle>
    <vehicle id="37" type="coche_estandar" depart="74.00">
        <route edges="1361349843#0 1361349843#1 847276258#0 847276258#1 30291491 570392407#4 570392407#5 66779640 96663429#1 611387511#0 611387511#1 569092394#1 569092397#0 569092397#1 569092396 569092395#0 569092395#1 265347387#1 391847341-AddedOnRampEdge 391847341"/>
    </vehicle>
    <vehicle id="38" type="coche_estandar" depart="76.00">
        <route edges="130507176 678422632 803442649 678422631 130507169#0 130507169#1 685752685 685752686#0 685752686#1 685752687 130507177"/>
    </vehicle>
    <vehicle id="39" type="coche_estandar" depart="78.00">
        <route edges="569465872#1 569465872#2 30291979#1 30291979#2 30291979#3 30293740#1 30293740#2 30293740#3 30293740#4 30293740#5 30293740#6 569465874#1 569465874#2 569465874#3 127699797#1 914739223 570392407#5 66779640 96663429#1 611387511#0 611387511#1 569092394#1"/>
    </vehicle>
    <vehicle id="40" type="coche_estandar" depart="80.00">
        <route edges="25026494 1117521596 25026516 847800382#1 847800382#2-AddedOnRampEdge 847800382#2 847269299#1-AddedOnRampEdge 847269299#1 847269299#2 847269299#3 25026548 1085728453#3 615309646#0 615309646#1 134976509#7 134976516#0 134976516#1 30971644#2 611387510 391847351#0 391847351#1 391847351#2 391847351#3 391847351#4 30497189#0 30497189#1 30497189#2 391847341-AddedOnRampEdge 391847341 265347392 94792574 96663450 1175821867#0 1175821867#1 1175821868 1161215336#0 391847330#0 391847330#1 391847330#2 391847330#3 391847330#4 391847330#5 391847330#6 391847330#7 391847330#9 391847330#10 391847330#11 569103370#0 569103370#1 569103369#0 569103369#1 569103369#2 569103369#3 569103369#6 569103369#7 569103369#8 569103369#9 569103369#10 265347385#1 127699800#0 127699800#1 42639771#0 42639771#1 394720553#1 -1486430351 1486430351"/>
    </vehicle>
    <vehicle id="41" type="coche_estandar" depart="82.00">
        <route edges="127699800#0 127699800#1 611387511#0 611387511#1 569092394#1 569092397#0 569092397#1 569092396 569092395#0 569092395#1 265347387#1 391847341-AddedOnRampEdge 391847341 265347392"/>
    </vehicle>
    <vehicle id="42" type="coche_estandar" depart="84.00">
        <route edges="134976508#0 134976508#1 134976509#2 134976509#3 134976509#4 134976509#5 615309645#0 615309645#1 922637491 922637493 922637492#0 922637492#1 25026494 1117521596 25026516 847800382#1"/>
    </vehicle>
    <vehicle id="43" type="coche_estandar" depart="86.00">
        <route edges="96663429#1 611387511#0 611387511#1 569092394#1 569092397#0 569092397#1 569092396 569092395#0 569092395#1 394914098#1 1082173941 265347388#0 265347388#1 922637492#0 922637492#1 25026494 1117521596 25026516 847800382#1 847800382#2-AddedOnRampEdge 847800382#2"/>
    </vehicle>
    <vehicle id="44" type="coche_estandar" depart="88.00">
        <route edges="202165074#0 202165074#1 202165074#2 49886955#0 49886955#1 49886955#2 393912342 533281878#0 533281878#1 533281878#1-AddedOffRampEdge 96663435 569092395#0 569092395#1 394914098#1 1160964646 1160964721 127696824#0 127696824#1 127696824#2 30971644#0 30971644#1 30971644#2 96663467#0 96663467#1 96663467#2"/>
    </vehicle>
    <vehicle id="45" type="coche_estandar" depart="90.00">
        <route edges="134976509#3 134976509#4 134976509#5 615309645#0 615309646#1 134976509#7 134976516#0 134976516#1 30971644#2 611387510 391847351#0 391847351#1 391847351#2 391847351#3 391847351#4 30497189#0 30497189#1 30497189#2 391847341-AddedOnRampEdge 391847341 265347392 94792574 96663450 1175821867#0 1175821867#1 1175821868 1161215336#0 391847330#0 391847330#1 391847330#2 391847330#3 391847330#4 391847330#5 391847330#6 391847330#7 391847330#9 391847330#10 391847330#11 569103370#0 569103370#1 569103369#0 569103369#1 569103369#2 569103369#3 569103369#6 569103369#7 569103369#8 569103369#9 569103369#10 265347385#1 127699800#0 127699800#1 42639771#0 42639771#1 394720553#1 -1486430351 570392407#0 570392407#1 570392407#2 96674861 580970328#0 580970328#1"/>
    </vehicle>
    <vehicle id="46" type="coche_estandar" depart="92.00">
        <route edges="922637493 922637492#0 922637492#1 25026494 1117521596 25026516 847800382#1 847800382#2-AddedOnRampEdge 847800382#2 847269299#1-AddedOnRampEdge 847269299#1 847269299#2 847269299#3 25026548 1085728453#3 615309646#0 615309646#1 134976509#7 134976516#0 134976516#1 30971644#2 611387510 391847351#0 391847351#1 391847351#2 391847351#3 391847351#4 30497189#0 30497189#1 30497189#2 391847341-AddedOnRampEdge 391847341 265347392 94792574 96663450 1175821867#0 1175821867#1 1175821868 1161215336#0 391847330#0 391847330#1 391847330#2 391847330#3 391847330#4 391847330#5 391847330#6 391847330#7 391847330#9 391847330#10 391847330#11 569103370#0 569103370#1 569103369#0 569103369#1 569103369#2 569103369#3 569103369#6 569103369#7 569103369#8 569103369#9 569103369#10 265347385#1 127699800#0 127699800#1 42639771#0 42639771#1 394720553#1 -1486430351 570392407#0 570392407#1 570392407#2 96674861 580970328#0 580970328#1 96674860"/>
    </vehicle>
    <vehicle id="47" type="coche_estandar" depart="94.00">
        <route edges="391847330#1 391847330#2 391847330#3 391847330#4 391847330#5 391847330#6 391847330#7 391847330#9 391847330#10 391847330#11 569103370#0 569103370#1"/>
    </vehicle>
    <vehicle id="48" type="coche_estandar" depart="96.00">
        <route edges="96663429#1 611387511#0 611387511#1 569092394#1 569092397#0 569092397#1 202165074#0 202165074#1 202165074#2 49886955#0 49886955#1 49886955#2 49886955#3 391847330#0 391847330#1 391847330#2 391847330#3 391847330#4 391847330#5 391847330#6 391847330#7"/>
    </vehicle>
    <vehicle id="49" type="coche_estandar" depart="98.00">
        <route edges="127696822#0 127696822#1 569465874#3 127699797#1 914739223 570392407#5 66779640 96663429#1 611387511#0 611387511#1 569092394#1 569092397#0 569092397#1 569092396 569092395#0 569092395#1 394914098#1 1160964646 1160964721 127696824#0 127696824#1 127696824#2 30971644#0 30971644#1 30971644#2 96663467#0 96663467#1 134976515#1 134976515#2 134976509#5 615309645#0 615309645#1 922637491 922637493"/>
    </vehicle>
    <vehicle id="50" type="coche_estandar" depart="100.00">
        <route edges="-685752686#0 130507179 -130507169#1 -130507171 130507167#1 130507167#2 130507167#3 130507174#1 130507164#0"/>
    </vehicle>
    <vehicle id="51" type="coche_estandar" depart="102.00">
        <route edges="847276258#1 30291491 570392407#4 570392407#5 66779640 96663429#1 611387511#0 611387511#1 569092394#1 569092397#0 569092397#1 569092396 569092395#0 569092395#1 394914098#1 1160964646 1160964721 127696824#0 127696824#1 127696824#2 30971644#0 134976512#0 134976512#1 134976509#9 134976509#10"/>
    </vehicle>
    <vehicle id="52" type="coche_estandar" depart="104.00">
        <route edges="1350430499#0 1350430499#1 533281878#0 533281878#1 533281878#1-AddedOffRampEdge 393912339 49886955#0 49886955#1 49886955#2 49886955#3 391847330#0 391847330#1 391847330#2 391847330#3 391847330#4 391847330#5 391847330#6 391847330#7 391847330#9 391847330#10 391847330#11 394914094#1 394914094#2 1175822180#0 1175822180#1 265347386 202165071#0 202165071#1 202165071#2 202165071#3-AddedOnRampEdge 202165071#3 570350749#0 570350749#1"/>
    </vehicle>
    <vehicle id="53" type="coche_estandar" depart="106.00">
        <route edges="-475721227#1 -475721227#0 -297930676#0 803442650#1 -297930669 297930670#1"/>
    </vehicle>
    <vehicle id="54" type="coche_estandar" depart="108.00">
        <route edges="96674861 580970328#0 580970328#1 96674860"/>
    </vehicle>
    <vehicle id="55" type="coche_estandar" depart="110.00">
        <route edges="-660048100 -130507167#0 202233560#1 202233560#2 202233560#3 -130507168#2 879239736 130507170"/>
    </vehicle>
    <vehicle id="56" type="coche_estandar" depart="112.00">
        <route edges="847269299#3 25026548 1085728453#3 1085728453#4 922637491 922637493 922637492#0 922637492#1 25026494 1117521596 25026516 847800382#1 847800382#2-AddedOnRampEdge 847800382#2 847269299#1-AddedOnRampEdge 847269299#1 847269299#2"/>
    </vehicle>
    <vehicle id="57" type="coche_estandar" depart="114.00">
        <route edges="202165071#3 202165071#4 49886826 611387511#0 611387511#1 569092394#1 569092397#0 569092397#1 569092396 569092395#0 569092395#1 394914098#1 1160964646 1160964721 127696824#0 127696824#1"/>
    </vehicle>
    <vehicle id="58" type="coche_estandar" depart="116.00">
        <route edges="394720552#0 394720552#1 394720552#2 569465872#0 569465872#1 569465872#2 30291979#1 30291979#2 30291979#3 30293740#1 30293740#2 30293740#3 30293740#4 30293740#5 30293740#6 569465874#1 569465874#2 569465874#3 127699797#1 914739223 570392407#5 66779640 96663429#1 611387511#0 611387511#1 569092394#1 569092397#0 569092397#1 569092396 569092395#0 569092395#1 394914098#1 1160964646 1160964721 127696824#0 127696824#1 127696824#2 30971644#0 30971644#1 30971644#2 96663467#0 96663467#1 96663467#2 96663467#3"/>
    </vehicle>
    <vehicle id="59" type="coche_estandar" depart="118.00">
        <route edges="49886955#1 49886955#2 393912342 533281878#0 533281878#1 533281878#1-AddedOffRampEdge 96663435 569092395#0 569092395#1 394914098#1 1160964646 1160964721 127696824#0 127696824#1 127696824#2 30971644#0 30971644#1 30971644#2 611387510 391847351#0 391847351#1 391847351#2 391847351#3 391847351#4 30497189#0 30497189#1 -127699786#2"/>
    </vehicle>
    <vehicle id="60" type="coche_estandar" depart="120.00">
        <route edges="1160964646 1160964721 127696824#0 127696824#1 127696824#2 30971644#0 30971644#1 30971644#2 96663467#0 96663467#1 134976515#1 134976515#2 134976509#5 615309645#0 615309645#1 922637491 922637493 922637492#0 922637492#1 25026494 1117521596 1117521597"/>
    </vehicle>
    <vehicle id="61" type="coche_estandar" depart="122.00">
        <route edges="1085728453#0-AddedOffRampEdge 1085728453#1 1085728453#2 1085728453#3 615309646#0 615309646#1 134976509#7 134976516#0 134976516#1 30971644#2 611387510 391847351#0 391847351#1 391847351#2 391847351#3 391847351#4 30497189#0 30497189#1 30497189#2 391847341-AddedOnRampEdge 391847341 265347392 94792574 96663450 1175821867#0 1175821867#1 1175821868 1161215336#0 391847330#0"/>
    </vehicle>
    <vehicle id="62" type="coche_estandar" depart="124.00">
        <route edges="134976509#6 134976509#7 134976516#0 134976516#1 30971644#2 611387510 391847351#0 391847351#1 391847351#2 391847351#3 391847351#4 30497189#0 30497189#1 30497189#2 391847341-AddedOnRampEdge 391847341 265347392 94792574 96663450 1175821867#0 1175821867#1 1175821868 1161215336#0 391847330#0 391847330#1 391847330#2 391847330#3 391847330#4 391847330#5 391847330#6 391847330#7 391847330#9 391847330#10 391847330#11 569103370#0 569103370#1 569103369#0 569103369#1 569103369#2 569103369#3 569103369#6 569103369#7 569103369#8 569103369#9 569103369#10 265347385#1 394222817"/>
    </vehicle>
    <vehicle id="63" type="coche_estandar" depart="126.00">
        <route edges="452540974#0 452540974#1 1175821867#0 1175821867#1 1175821868 1350430499#0 1350430499#1 533281878#0 533281878#1 533281878#1-AddedOffRampEdge 96663435 569092395#0 569092395#1 394914098#1 1160964646 1160964721 127696824#0 127696824#1 127696824#2 30971644#0 30971644#1 30971644#2 96663467#0 96663467#1 134976515#1 134976515#2 134976509#5 615309645#0 615309646#1 134976509#7 134976509#8"/>
    </vehicle>
    <vehicle id="64" type="coche_estandar" depart="128.00">
        <route edges="30291979#3 30293740#1 30293740#2 30293740#3 30293740#4 30293740#5 30293740#6 394720553#1 -1486430351 570392407#0 570392407#1 570392407#2 96674861 580970328#0 580970328#1 580970328#2 25026507 847796007#0 847796007#1 847796007#2 847796007#3 847796007#4"/>
    </vehicle>
    <vehicle id="65" type="coche_estandar" depart="130.00">
        <route edges="-127699786#2 -127699786#1 -127699786#0 127699786#0 127699786#1 127699786#2 30497189#2 391847341-AddedOnRampEdge 391847341 265347392 94792574 96663450 1175821867#0 1175821867#1 1175821868 1161215336#0 391847330#0 391847330#1 391847330#2 391847330#3 391847330#4 391847330#5 391847330#6 391847330#7 391847330#9 391847330#10 391847330#11 569103370#0 569103370#1 569103369#0 569103369#1 569103369#2 569103369#3 569103369#6 569103369#7 569103369#8 569103369#9 569103369#10 265347385#1 127699800#0 127699800#1 42639771#0 42639771#1 394720553#1 -1486430351 570392407#0 570392407#1 570392407#2 96674861 580970328#0 580970328#1 580970328#2 580970326 580970326-AddedOffRampEdge"/>
    </vehicle>
    <vehicle id="66" type="coche_estandar" depart="132.00">
        <route edges="452540974#1 1175821867#0 1175821867#1 1175821868 1350430499#0 1350430499#1 533281878#0 533281878#1 533281878#1-AddedOffRampEdge 96663435 569092395#0 569092395#1 394914098#1 1160964646 1160964721 127696824#0 127696824#1 127696824#2 30971644#0 30971644#1 30971644#2 96663467#0 96663467#1 134976515#1 134976515#2 134976509#5 615309645#0 615309646#1 134976509#7"/>
    </vehicle>
    <vehicle id="67" type="coche_estandar" depart="134.00">