<?xml version="1.0" encoding="UTF-8"?>

<!-- generated on 2026-05-21 15:29:27 by Eclipse SUMO netedit Version 1.24.0
<neteditConfiguration xmlns:xsi="http://www.w3.org/2001/XMLSchema-instance" xsi:noNamespaceSchemaLocation="http://sumo.dlr.de/xsd/neteditConfiguration.xsd">

    <input>
        <sumocfg-file value="C:\Users\Fernando\Documents\Phd\V2V_ESP32\Mapas\SemiPlanificado\simulacion_stfe.sumocfg"/>
        <sumo-net-file value="C:\Users\Fernando\Documents\Phd\V2V_ESP32\Mapas\SemiPlanificado\santafe_v2v.net.xml"/>
    </input>

    <output>
        <output-file value="C:\Users\Fernando\Documents\Phd\V2V_ESP32\Mapas\SemiPlanificado\santafe_v2v.net.xml"/>
    </output>

    <processing>
        <geometry.min-radius.fix.railways value="false"/>
        <geometry.avoid-overlap value="false"/>
        <geometry.max-grade.fix value="false"/>
        <offset.disable-normalization value="true"/>
        <lefthand value="0"/>
    </processing>

    <junctions>
        <no-turnarounds value="true"/>
        <junctions.corner-detail value="5"/>
        <junctions.limit-turn-speed value="5.50"/>
        <rectangular-lane-cut value="0"/>
    </junctions>

    <pedestrian>
        <walkingareas value="0"/>
    </pedestrian>

    <netedit>
        <ignore.routeelements value="false"/>
    </netedit>

</neteditConfiguration>
-->

<net version="1.20" junctionCornerDetail="5" limitTurnSpeed="5.50" avoidOverlap="0" xmlns:xsi="http://www.w3.org/2001/XMLSchema-instance" xsi:noNamespaceSchemaLocation="http://sumo.dlr.de/xsd/net_file.xsd">

    <location netOffset="-466200.83,-2136038.85" convBoundary="4474.41,4040.05,12340.23,8779.51" origBoundary="-99.321747,19.317941,-99.204375,19.397453" projParameter="+proj=utm +zone=14 +ellps=WGS84 +datum=WGS84 +units=m +no_defs"/>

    <type id="highway.footway" priority="1" numLanes="1" speed="2.78" allow="pedestrian" oneway="1" width="2.00"/>
    <type id="highway.motorway" priority="14" numLanes="2" speed="39.44" allow="private emergency authority army vip passenger hov taxi bus coach delivery truck trailer motorcycle evehicle custom1 custom2" oneway="1"/>
    <type id="highway.motorway_link" priority="9" numLanes="1" speed="22.22" allow="private emergency authority army vip passenger hov taxi bus coach delivery truck trailer motorcycle evehicle custom1 custom2" oneway="1"/>
    <type id="highway.path" priority="1" numLanes="1" speed="5.56" allow="pedestrian bicycle" oneway="0" width="2.00"/>
    <type id="highway.pedestrian" priority="1" numLanes="1" speed="2.78" allow="pedestrian" oneway="1" width="2.00"/>
    <type id="highway.primary" priority="12" numLanes="2" speed="27.78" disallow="tram rail_urban rail rail_electric rail_fast ship container cable_car subway aircraft wheelchair scooter drone" oneway="0"/>
    <type id="highway.residential" priority="3" numLanes="1" speed="13.89" disallow="tram rail_urban rail rail_electric rail_fast ship container cable_car subway aircraft wheelchair scooter drone" oneway="0"/>
    <type id="highway.secondary" priority="11" numLanes="1" speed="27.78" disallow="tram rail_urban rail rail_electric rail_fast ship container cable_car subway aircraft wheelchair scooter drone" oneway="0"/>
    <type id="highway.secondary_link" priority="6" numLanes="1" speed="22.22" disallow="tram rail_urban rail rail_electric rail_fast ship container cable_car subway aircraft wheelchair scooter drone" oneway="0"/>
    <type id="highway.service" priority="1" numLanes="1" speed="5.56" allow="pedestrian delivery bicycle" oneway="0"/>
    <type id="highway.steps" priority="1" numLanes="1" speed="1.39" allow="pedestrian" oneway="1" width="2.00"/>
    <type id="highway.tertiary" priority="10" numLanes="1" speed="22.22" disallow="tram rail_urban rail rail_electric rail_fast ship container cable_car subway aircraft wheelchair scooter drone" oneway="0"/>
    <type id="highway.tertiary_link" priority="5" numLanes="1" speed="22.22" disallow="tram rail_urban rail rail_electric rail_fast ship container cable_car subway aircraft wheelchair scooter drone" oneway="0"/>
    <type id="highway.unclassified" priority="4" numLanes="1" speed="13.89" disallow="tram rail_urban rail rail_electric rail_fast ship container cable_car subway aircraft wheelchair scooter drone" oneway="0"/>

    <edge id=":10220748307_0" function="internal">
        <lane id=":10220748307_0_0" index="0" disallow="tram rail_urban rail rail_electric rail_fast ship container cable_car subway aircraft wheelchair scooter drone" speed="27.78" length="1.70" shape="5817.06,5387.33 5815.42,5387.47"/>
        <lane id=":10220748307_0_1" index="1" disallow="tram rail_urban rail rail_electric rail_fast ship container cable_car subway aircraft wheelchair scooter drone" speed="27.78" length="1.70" shape="5813.90,5386.83 5812.25,5387.09"/>
        <lane id=":10220748307_0_2" index="2" disallow="tram rail_urban rail rail_electric rail_fast ship container cable_car subway aircraft wheelchair scooter drone" speed="27.78" length="1.70" shape="5810.74,5386.32 5809.07,5386.71"/>
        <lane id=":10220748307_0_3" index="3" disallow="tram rail_urban rail rail_electric rail_fast ship container cable_car subway aircraft wheelchair scooter drone" speed="27.78" length="1.70" shape="5807.58,5385.81 5805.89,5386.33"/>
    </edge>
    <edge id=":10220748316_0" function="internal">
        <lane id=":10220748316_0_0" index="0" disallow="tram rail_urban rail rail_electric rail_fast ship container cable_car subway aircraft wheelchair scooter drone" speed="19.45" length="17.47" shape="5807.74,5454.22 5808.81,5459.55 5810.44,5462.99 5812.24,5466.41 5813.81,5471.67"/>
        <lane id=":10220748316_0_1" index="1" disallow="tram rail_urban rail rail_electric rail_fast ship container cable_car subway aircraft wheelchair scooter drone" speed="19.45" length="17.47" shape="5804.69,5456.00 5805.74,5460.99 5807.37,5464.19 5809.15,5467.36 5810.67,5472.28"/>
        <lane id=":10220748316_0_2" index="2" disallow="tram rail_urban rail rail_electric rail_fast ship container cable_car subway aircraft wheelchair scooter drone" speed="19.45" length="17.47" shape="5801.71,5457.74 5802.87,5462.38 5804.46,5465.35 5806.12,5468.30 5807.53,5472.90"/>
    </edge>
    <edge id=":10220748316_3" function="internal">
        <lane id=":10220748316_3_0" index="0" disallow="tram rail_urban rail rail_electric rail_fast ship container cable_car subway aircraft wheelchair scooter drone" speed="16.66" length="15.22" shape="5798.19,5459.82 5800.24,5462.59 5801.89,5465.38 5803.24,5468.82 5804.39,5473.51"/>
    </edge>
    <edge id=":1085728453#0-AddedOffRampNode_0" function="internal">
        <lane id=":1085728453#0-AddedOffRampNode_0_0" index="0" disallow="tram rail_urban rail rail_electric rail_fast ship container cable_car subway aircraft wheelchair scooter drone" speed="11.11" length="8.74" shape="5447.18,4768.48 5450.00,4769.05 5452.27,4767.88 5454.55,4766.70 5457.36,4767.28"/>
        <lane id=":1085728453#0-AddedOffRampNode_0_1" index="1" disallow="tram rail_urban rail rail_electric rail_fast ship container cable_car subway aircraft wheelchair scooter drone" speed="11.11" length="8.74" shape="5447.18,4768.48 5449.54,4769.36 5451.43,4769.24 5453.31,4769.12 5455.67,4770.00"/>
        <lane id=":1085728453#0-AddedOffRampNode_0_2" index="2" disallow="tram rail_urban rail rail_electric rail_fast ship container cable_car subway aircraft wheelchair scooter drone" speed="11.11" length="8.74" shape="5447.18,4768.48 5453.97,4772.71"/>
        <lane id=":1085728453#0-AddedOffRampNode_0_3" index="3" disallow="tram rail_urban rail rail_electric rail_fast ship container cable_car subway aircraft wheelchair scooter drone" speed="11.11" length="8.74" shape="5445.49,4771.19 5452.28,4775.42"/>
        <lane id=":1085728453#0-AddedOffRampNode_0_4" index="4" disallow="tram rail_urban rail rail_electric rail_fast ship container cable_car subway aircraft wheelchair scooter drone" speed="11.11" length="8.74" shape="5443.79,4773.91 5450.58,4778.14"/>
    </edge>
    <edge id=":10977189176_0" function="internal">
        <lane id=":10977189176_0_0" index="0" allow="pedestrian delivery bicycle" speed="4.99" length="5.06" shape="6475.73,5138.80 6474.70,5139.74 6474.24,5140.78 6474.35,5141.91 6475.02,5143.13"/>
    </edge>
    <edge id=":10977189176_1" function="internal">
        <lane id=":10977189176_1_0" index="0" allow="pedestrian delivery bicycle" speed="3.65" length="4.67" shape="6475.73,5138.80 6474.28,5138.82 6473.50,5138.39 6473.38,5137.50 6473.91,5136.16"/>
    </edge>
    <edge id=":10977189176_2" function="internal">
        <lane id=":10977189176_2_0" index="0" allow="pedestrian delivery bicycle" speed="5.20" length="5.19" shape="6469.35,5135.63 6470.32,5136.57 6471.40,5136.97 6472.60,5136.83 6473.91,5136.16"/>
    </edge>
    <edge id=":10977189176_3" function="internal">
        <lane id=":10977189176_3_0" index="0" disallow="tram rail_urban rail rail_electric rail_fast ship container cable_car subway aircraft wheelchair scooter drone" speed="22.22" length="9.41" shape="6469.35,5135.63 6475.02,5143.13"/>
    </edge>
    <edge id=":1100471606_0" function="internal">
        <lane id=":1100471606_0_0" index="0" disallow="tram rail_urban rail rail_electric rail_fast ship container cable_car subway aircraft wheelchair scooter drone" speed="25.00" length="1.99" shape="5823.56,5049.81 5824.29,5051.66"/>
    </edge>
    <edge id=":1100471606_1" function="internal">
        <lane id=":1100471606_1_0" index="0" disallow="tram rail_urban rail rail_electric rail_fast ship container cable_car subway aircraft wheelchair scooter drone" speed="27.78" length="1.91" shape="5820.03,5050.82 5820.44,5051.36 5820.75,5051.73 5821.01,5052.12 5821.28,5052.74"/>
        <lane id=":1100471606_1_1" index="1" disallow="tram rail_urban rail rail_electric rail_fast ship container cable_car subway aircraft wheelchair scooter drone" speed="27.78" length="1.91" shape="5817.38,5052.61 5817.66,5052.96 5817.89,5053.18 5818.08,5053.42 5818.27,5053.82"/>
    </edge>
    <edge id=":1100471611_0" function="internal">
        <lane id=":1100471611_0_0" index="0" disallow="tram rail_urban rail rail_electric rail_fast ship container cable_car subway aircraft wheelchair scooter drone" speed="18.83" length="8.58" shape="6251.40,4858.50 6253.65,4857.34 6255.28,4856.69 6257.00,4856.34 6259.52,4856.07"/>
    </edge>
    <edge id=":1100471624_0" function="internal">
        <lane id=":1100471624_0_0" index="0" disallow="tram rail_urban rail rail_electric rail_fast ship container cable_car subway aircraft wheelchair scooter drone" speed="22.22" length="3.12" shape="5946.54,4981.36 5943.95,4979.62"/>
    </edge>
    <edge id=":1100471624_1" function="internal">
        <lane id=":1100471624_1_0" index="0" disallow="tram rail_urban rail rail_electric rail_fast ship container cable_car subway aircraft wheelchair scooter drone" speed="22.22" length="3.15" shape="5948.42,4978.76 5947.66,4978.21 5947.16,4977.83 5946.66,4977.42 5945.96,4976.81"/>
    </edge>
    <edge id=":11038316324_0" function="internal">
        <lane id=":11038316324_0_0" index="0" allow="pedestrian delivery bicycle" speed="5.40" length="5.32" shape="6612.70,4684.60 6611.38,4684.53 6610.27,4684.93 6609.37,4685.83 6608.67,4687.22"/>
    </edge>
    <edge id=":11038316324_1" function="internal">
        <lane id=":11038316324_1_0" index="0" allow="pedestrian delivery bicycle" speed="5.56" length="9.30" shape="6612.70,4684.60 6603.72,4682.19"/>
    </edge>
    <edge id=":11038316324_2" function="internal">
        <lane id=":11038316324_2_0" index="0" allow="pedestrian delivery bicycle" speed="4.99" length="5.06" shape="6605.67,4686.12 6605.95,4684.75 6605.73,4683.64 6604.98,4682.79 6603.72,4682.19"/>
    </edge>
    <edge id=":11038316324_3" function="internal">
        <lane id=":11038316324_3_0" index="0" allow="pedestrian delivery bicycle" speed="3.65" length="4.67" shape="6605.67,4686.12 6606.83,4685.27 6607.72,4685.17 6608.33,4685.82 6608.67,4687.22"/>
    </edge>
    <edge id=":11038316325_0" function="internal">
        <lane id=":11038316325_0_0" index="0" allow="pedestrian delivery bicycle" speed="5.56" length="9.40" shape="6607.06,4700.87 6598.19,4697.77"/>
    </edge>
    <edge id=":11038316325_1" function="internal">
        <lane id=":11038316325_1_0" index="0" allow="pedestrian delivery bicycle" speed="5.56" length="10.23" shape="6607.06,4700.87 6604.57,4699.58 6603.10,4697.81 6602.65,4695.54 6603.23,4692.79"/>
    </edge>
    <edge id=":11038316325_2" function="internal">
        <lane id=":11038316325_2_0" index="0" allow="pedestrian delivery bicycle" speed="3.65" length="4.67" shape="6607.06,4700.87 6606.19,4699.72 6606.08,4698.84 6606.72,4698.21 6608.12,4697.85"/>
    </edge>
    <edge id=":11038316325_3" function="internal">
        <lane id=":11038316325_3_0" index="0" allow="pedestrian delivery bicycle" speed="5.03" length="5.02" shape="6606.24,4693.89 6605.96,4695.24 6606.17,4696.35 6606.89,4697.22 6608.12,4697.85"/>
    </edge>
    <edge id=":11038316325_4" function="internal">
        <lane id=":11038316325_4_0" index="0" allow="pedestrian delivery bicycle" speed="5.56" length="10.16" shape="6606.24,4693.89 6604.92,4696.36 6603.14,4697.83 6600.90,4698.30 6598.19,4697.77"/>
    </edge>
    <edge id=":11038316325_5" function="internal">
        <lane id=":11038316325_5_0" index="0" allow="pedestrian delivery bicycle" speed="3.65" length="4.67" shape="6606.24,4693.89 6605.08,4694.74 6604.19,4694.85 6603.57,4694.20 6603.23,4692.79"/>
    </edge>
    <edge id=":11038316325_6" function="internal">
        <lane id=":11038316325_6_0" index="0" allow="pedestrian delivery bicycle" speed="5.09" length="5.05" shape="6599.24,4694.75 6600.58,4695.01 6601.69,4694.77 6602.58,4694.03 6603.23,4692.79"/>
    </edge>
    <edge id=":11038316325_7" function="internal">
        <lane id=":11038316325_7_0" index="0" allow="pedestrian delivery bicycle" speed="5.56" length="9.40" shape="6599.24,4694.75 6608.12,4697.85"/>
    </edge>
    <edge id=":11038316325_8" function="internal">
        <lane id=":11038316325_8_0" index="0" allow="pedestrian delivery bicycle" speed="3.65" length="4.67" shape="6599.24,4694.75 6600.11,4695.90 6600.22,4696.79 6599.58,4697.42 6598.19,4697.77"/>
    </edge>
    <edge id=":11038316332_0" function="internal">
        <lane id=":11038316332_0_0" index="0" allow="pedestrian delivery bicycle" speed="5.56" length="5.02" shape="6667.46,4708.53 6663.00,4710.84"/>
    </edge>
    <edge id=":11038316332_1" function="internal">
        <lane id=":11038316332_1_0" index="0" allow="pedestrian delivery bicycle" speed="3.65" length="4.67" shape="6667.46,4708.53 6666.03,4708.38 6665.30,4707.85 6665.29,4706.96 6665.99,4705.69"/>
    </edge>
    <edge id=":11038316332_2" function="internal">
        <lane id=":11038316332_2_0" index="0" allow="pedestrian delivery bicycle" speed="5.56" length="5.02" shape="6661.53,4708.00 6665.99,4705.69"/>
    </edge>
    <edge id=":11038316332_3" function="internal">
        <lane id=":11038316332_3_0" index="0" allow="pedestrian delivery bicycle" speed="3.65" length="4.67" shape="6661.53,4708.00 6662.97,4708.16 6663.69,4708.69 6663.70,4709.58 6663.00,4710.84"/>
    </edge>
    <edge id=":11038316350_0" function="internal">
        <lane id=":11038316350_0_0" index="0" allow="pedestrian delivery bicycle" speed="5.56" length="5.00" shape="6733.63,4675.50 6732.16,4675.54 6731.18,4675.76 6730.23,4676.17 6728.87,4676.79"/>
    </edge>
    <edge id=":11038316350_1" function="internal">
        <lane id=":11038316350_1_0" index="0" allow="pedestrian delivery bicycle" speed="3.76" length="5.10" shape="6733.63,4675.50 6732.09,4675.18 6731.36,4674.54 6731.44,4673.56 6732.32,4672.27"/>
    </edge>
    <edge id=":11038316350_2" function="internal">
        <lane id=":11038316350_2_0" index="0" allow="pedestrian delivery bicycle" speed="5.56" length="5.05" shape="6727.62,4673.85 6728.97,4673.18 6729.90,4672.67 6730.86,4672.35 6732.32,4672.27"/>
    </edge>
    <edge id=":11038316350_3" function="internal">
        <lane id=":11038316350_3_0" index="0" allow="pedestrian delivery bicycle" speed="3.65" length="4.67" shape="6727.62,4673.85 6729.04,4674.11 6729.72,4674.69 6729.66,4675.59 6728.87,4676.79"/>
    </edge>
    <edge id=":1119549436_0" function="internal">
        <lane id=":1119549436_0_0" index="0" allow="private emergency authority army vip passenger hov taxi bus coach delivery truck trailer motorcycle evehicle custom1 custom2" speed="20.84" length="3.45" shape="6371.38,4720.32 6371.83,4719.41 6372.10,4718.76 6372.29,4718.08 6372.49,4717.08"/>
    </edge>
    <edge id=":1119549436_1" function="internal">
        <lane id=":1119549436_1_0" index="0" allow="private emergency authority army vip passenger hov taxi bus coach delivery truck trailer motorcycle evehicle custom1 custom2" speed="13.89" length="3.90" shape="6374.75,4721.33 6375.63,4717.68"/>
        <lane id=":1119549436_1_1" index="1" allow="private emergency authority army vip passenger hov taxi bus coach delivery truck trailer motorcycle evehicle custom1 custom2" speed="13.89" length="3.90" shape="6377.83,4722.20 6378.78,4718.28"/>
    </edge>
    <edge id=":1119549498_0" function="internal">
        <lane id=":1119549498_0_0" index="0" disallow="tram rail_urban rail rail_electric rail_fast ship container cable_car subway aircraft wheelchair scooter drone" speed="18.05" length="36.40" shape="5825.93,5504.06 5826.04,5509.80 5826.25,5518.64 5827.34,5529.18 5830.10,5540.05"/>
    </edge>
    <edge id=":1119549498_1" function="internal">
        <lane id=":1119549498_1_0" index="0" disallow="tram rail_urban rail rail_electric rail_fast ship container cable_car subway aircraft wheelchair scooter drone" speed="12.50" length="36.17" shape="5822.04,5504.86 5830.10,5540.05"/>
        <lane id=":1119549498_1_1" index="1" disallow="tram rail_urban rail rail_electric rail_fast ship container cable_car subway aircraft wheelchair scooter drone" speed="12.50" length="36.17" shape="5819.01,5505.89 5827.09,5541.15"/>
        <lane id=":1119549498_1_2" index="2" disallow="tram rail_urban rail rail_electric rail_fast ship container cable_car subway aircraft wheelchair scooter drone" speed="12.50" length="36.17" shape="5815.98,5506.93 5824.09,5542.25"/>
    </edge>
    <edge id=":1119549510_0" function="internal">
        <lane id=":1119549510_0_0" index="0" disallow="tram rail_urban rail rail_electric rail_fast ship container cable_car subway aircraft wheelchair scooter drone" speed="6.90" length="6.42" shape="6392.59,5055.18 6390.92,5054.68 6389.35,5054.63 6387.89,5055.02 6386.53,5055.86"/>
    </edge>
    <edge id=":1119549510_1" function="internal">
        <lane id=":1119549510_1_0" index="0" disallow="tram rail_urban rail rail_electric rail_fast ship container cable_car subway aircraft wheelchair scooter drone" speed="10.06" length="6.94" shape="6389.98,5050.09 6389.49,5052.07 6388.95,5053.40 6388.06,5054.52 6386.53,5055.86"/>
    </edge>
    <edge id=":1119549535_0" function="internal">
        <lane id=":1119549535_0_0" index="0" disallow="tram rail_urban rail rail_electric rail_fast ship container cable_car subway aircraft wheelchair scooter drone" speed="27.78" length="3.82" shape="6142.57,4884.31 6146.23,4883.22"/>
    </edge>
    <edge id=":1119549535_1" function="internal">
        <lane id=":1119549535_1_0" index="0" disallow="tram rail_urban rail rail_electric rail_fast ship container cable_car subway aircraft wheelchair scooter drone" speed="10.61" length="3.69" shape="6143.54,4887.36 6144.59,4887.05 6145.33,4886.91 6146.09,4886.92 6147.17,4887.06"/>
    </edge>
    <edge id=":1119549543_0" function="internal">
        <lane id=":1119549543_0_0" index="0" disallow="tram rail_urban rail rail_electric rail_fast ship container cable_car subway aircraft wheelchair scooter drone" speed="25.00" length="7.01" shape="5759.81,5340.19 5760.38,5338.19 5760.73,5336.81 5761.01,5335.41 5761.37,5333.37"/>
    </edge>
    <edge id=":1119549543_1" function="internal">
        <lane id=":1119549543_1_0" index="0" disallow="tram rail_urban rail rail_electric rail_fast ship container cable_car subway aircraft wheelchair scooter drone" speed="27.78" length="7.48" shape="5759.81,5340.19 5760.37,5338.19 5760.72,5336.81 5761.00,5335.41 5761.37,5333.37"/>
        <lane id=":1119549543_1_1" index="1" disallow="tram rail_urban rail rail_electric rail_fast ship container cable_car subway aircraft wheelchair scooter drone" speed="27.78" length="7.48" shape="5762.89,5341.06 5763.47,5338.97 5763.84,5337.53 5764.14,5336.07 5764.53,5333.93"/>
        <lane id=":1119549543_1_2" index="2" disallow="tram rail_urban rail rail_electric rail_fast ship container cable_car subway aircraft wheelchair scooter drone" speed="27.78" length="7.48" shape="5765.96,5341.93 5766.58,5339.75 5766.96,5338.24 5767.27,5336.72 5767.68,5334.49"/>
        <lane id=":1119549543_1_3" index="3" disallow="tram rail_urban rail rail_electric rail_fast ship container cable_car subway aircraft wheelchair scooter drone" speed="27.78" length="7.48" shape="5769.04,5342.81 5769.68,5340.53 5770.08,5338.96 5770.40,5337.38 5770.83,5335.05"/>
    </edge>
    <edge id=":1119549550_0" function="internal">
        <lane id=":1119549550_0_0" index="0" disallow="tram rail_urban rail rail_electric rail_fast ship container cable_car subway aircraft wheelchair scooter drone" speed="17.89" length="21.82" shape="6414.04,5472.58 6411.52,5468.48 6407.67,5463.74 6403.37,5459.39 6399.55,5456.50"/>
    </edge>
    <edge id=":1119549550_1" function="internal">
        <lane id=":1119549550_1_0" index="0" disallow="tram rail_urban rail rail_electric rail_fast ship container cable_car subway aircraft wheelchair scooter drone" speed="22.22" length="22.57" shape="6414.04,5472.58 6411.73,5468.22 6408.42,5462.79 6404.86,5457.53 6401.83,5453.64"/>
    </edge>
    <edge id=":1119549550_2" function="internal">
        <lane id=":1119549550_2_0" index="0" disallow="tram rail_urban rail rail_electric rail_fast ship container cable_car subway aircraft wheelchair scooter drone" speed="18.05" length="24.90" shape="6418.67,5472.38 6414.89,5468.67 6409.50,5463.95 6403.92,5459.48 6399.55,5456.50"/>
    </edge>
    <edge id=":1119549550_3" function="internal">
        <lane id=":1119549550_3_0" index="0" disallow="tram rail_urban rail rail_electric rail_fast ship container cable_car subway aircraft wheelchair scooter drone" speed="22.22" length="25.20" shape="6418.67,5472.38 6401.83,5453.64"/>
    </edge>
    <edge id=":1119549550_4" function="internal">
        <lane id=":1119549550_4_0" index="0" disallow="tram rail_urban rail rail_electric rail_fast ship container cable_car subway aircraft wheelchair scooter drone" speed="13.89" length="25.17" shape="6420.99,5469.69 6399.55,5456.50"/>
    </edge>
    <edge id=":1119549550_5" function="internal">
        <lane id=":1119549550_5_0" index="0" disallow="tram rail_urban rail rail_electric rail_fast ship container cable_car subway aircraft wheelchair scooter drone" speed="18.05" length="25.03" shape="6420.99,5469.69 6416.71,5466.54 6411.10,5462.02 6405.65,5457.33 6401.83,5453.64"/>
    </edge>
    <edge id=":1119549560_0" function="internal">
        <lane id=":1119549560_0_0" index="0" disallow="tram rail_urban rail rail_electric rail_fast ship container cable_car subway aircraft wheelchair scooter drone" speed="6.70" length="5.42" shape="5773.16,4818.57 5773.48,4819.36 5774.25,4820.19 5775.48,4821.07 5777.16,4822.00"/>
    </edge>
    <edge id=":1119549560_1" function="internal">
        <lane id=":1119549560_1_0" index="0" disallow="tram rail_urban rail rail_electric rail_fast ship container cable_car subway aircraft wheelchair scooter drone" speed="22.22" length="5.80" shape="5773.16,4818.57 5773.27,4820.28 5773.16,4821.45 5772.89,4822.61 5772.51,4824.29"/>
    </edge>
    <edge id=":1119549679_0" function="internal">
        <lane id=":1119549679_0_0" index="0" disallow="tram rail_urban rail rail_electric rail_fast ship container cable_car subway aircraft wheelchair scooter drone" speed="22.22" length="12.53" shape="6673.94,5384.06 6676.23,5386.55 6678.17,5388.74 6680.28,5390.71 6683.07,5392.53"/>
    </edge>
    <edge id=":1119549679_1" function="internal">
        <lane id=":1119549679_1_0" index="0" disallow="tram rail_urban rail rail_electric rail_fast ship container cable_car subway aircraft wheelchair scooter drone" speed="18.05" length="12.52" shape="6671.82,5387.04 6683.07,5392.53"/>
    </edge>
    <edge id=":1119549733_0" function="internal">
        <lane id=":1119549733_0_0" index="0" allow="pedestrian delivery bicycle" speed="6.15" length="7.69" shape="6614.33,5633.27 6613.08,5633.15 6611.94,5632.18 6610.89,5630.36 6609.95,5627.68"/>
    </edge>
    <edge id=":1119549733_1" function="internal">
        <lane id=":1119549733_1_0" index="0" allow="pedestrian delivery bicycle" speed="3.65" length="4.67" shape="6614.33,5633.27 6612.97,5632.77 6612.40,5632.08 6612.60,5631.21 6613.58,5630.15"/>
    </edge>
    <edge id=":1119549733_2" function="internal">
        <lane id=":1119549733_2_0" index="0" disallow="tram rail_urban rail rail_electric rail_fast ship container cable_car subway aircraft wheelchair scooter drone" speed="8.87" length="9.08" shape="6607.82,5636.17 6609.20,5634.01 6610.02,5631.87 6610.27,5629.76 6609.95,5627.68"/>
    </edge>
    <edge id=":1119549733_3" function="internal">
        <lane id=":1119549733_3_0" index="0" allow="pedestrian delivery bicycle" speed="10.85" length="8.67" shape="6607.82,5636.17 6609.22,5633.97 6610.13,5632.29 6611.33,5631.04 6613.58,5630.15"/>
    </edge>
    <edge id=":1119549736_0" function="internal">
        <lane id=":1119549736_0_0" index="0" disallow="tram rail_urban rail rail_electric rail_fast ship container cable_car subway aircraft wheelchair scooter drone" speed="13.89" length="7.16" shape="6609.71,5361.08 6607.90,5362.19 6606.64,5362.96 6605.52,5363.87 6604.12,5365.45"/>
    </edge>
    <edge id=":1119549736_1" function="internal">
        <lane id=":1119549736_1_0" index="0" disallow="tram rail_urban rail rail_electric rail_fast ship container cable_car subway aircraft wheelchair scooter drone" speed="13.30" length="7.14" shape="6606.29,5358.79 6605.98,5360.90 6605.78,5362.39 6605.29,5363.74 6604.12,5365.45"/>
    </edge>
    <edge id=":1119549759_0" function="internal">
        <lane id=":1119549759_0_0" index="0" disallow="tram rail_urban rail rail_electric rail_fast ship container cable_car subway aircraft wheelchair scooter drone" speed="13.52" length="4.51" shape="5772.15,4838.05 5771.24,4838.39 5770.64,4838.69 5770.09,4839.09 5769.35,4839.72"/>
        <lane id=":1119549759_0_1" index="1" disallow="tram rail_urban rail rail_electric rail_fast ship container cable_car subway aircraft wheelchair scooter drone" speed="6.54" length="4.51" shape="5772.34,4835.11 5771.38,4834.99 5770.22,4835.31 5768.85,4836.07 5767.28,4837.28"/>
    </edge>
    <edge id=":1119549759_2" function="internal">
        <lane id=":1119549759_2_0" index="0" disallow="tram rail_urban rail rail_electric rail_fast ship container cable_car subway aircraft wheelchair scooter drone" speed="22.22" length="8.48" shape="5771.19,4828.96 5769.83,4831.03 5768.62,4832.25 5767.20,4833.29 5765.20,4834.84"/>
    </edge>
    <edge id=":1119549804_0" function="internal">
        <lane id=":1119549804_0_0" index="0" disallow="tram rail_urban rail rail_electric rail_fast ship container cable_car subway aircraft wheelchair scooter drone" speed="3.65" length="4.67" shape="6019.01,4443.62 6020.44,4443.83 6021.15,4444.38 6021.13,4445.28 6020.39,4446.52"/>
    </edge>
    <edge id=":1119549812_0" function="internal">
        <lane id=":1119549812_0_0" index="0" disallow="tram rail_urban rail rail_electric rail_fast ship container cable_car subway aircraft wheelchair scooter drone" speed="22.22" length="8.38" shape="6783.47,5435.13 6785.84,5435.87 6787.43,5436.48 6788.94,5437.26 6791.08,5438.54"/>
    </edge>
    <edge id=":1119605936_0" function="internal">
        <lane id=":1119605936_0_0" index="0" disallow="tram rail_urban rail rail_electric rail_fast ship container cable_car subway aircraft wheelchair scooter drone" speed="13.89" length="9.38" shape="6299.76,5728.74 6294.35,5721.38"/>
        <lane id=":1119605936_0_1" index="1" disallow="tram rail_urban rail rail_electric rail_fast ship container cable_car subway aircraft wheelchair scooter drone" speed="13.89" length="9.38" shape="6302.35,5726.87 6296.87,5719.40"/>
        <lane id=":1119605936_0_2" index="2" disallow="tram rail_urban rail rail_electric rail_fast ship container cable_car subway aircraft wheelchair scooter drone" speed="13.89" length="9.38" shape="6304.95,5724.99 6299.39,5717.43"/>
        <lane id=":1119605936_0_3" index="3" disallow="tram rail_urban rail rail_electric rail_fast ship container cable_car subway aircraft wheelchair scooter drone" speed="13.89" length="9.38" shape="6307.54,5723.12 6301.91,5715.46"/>
        <lane id=":1119605936_0_4" index="4" disallow="tram rail_urban rail rail_electric rail_fast ship container cable_car subway aircraft wheelchair scooter drone" speed="13.89" length="9.38" shape="6310.13,5721.24 6304.43,5713.49"/>
    </edge>
    <edge id=":1119605936_5" function="internal">
        <lane id=":1119605936_5_0" index="0" disallow="tram rail_urban rail rail_electric rail_fast ship container cable_car subway aircraft wheelchair scooter drone" speed="7.43" length="15.46" shape="6311.44,5715.54 6308.48,5719.32 6305.48,5720.90 6302.45,5720.27 6299.39,5717.43"/>
        <lane id=":1119605936_5_1" index="1" disallow="tram rail_urban rail rail_electric rail_fast ship container cable_car subway aircraft wheelchair scooter drone" speed="6.65" length="12.10" shape="6311.44,5715.54 6309.30,5718.10 6306.99,5718.94 6304.53,5718.06 6301.91,5715.46"/>