<?xml version="1.0" encoding="UTF-8"?>

<!-- generated on 2026-05-21 15:32:24.926024 by randomTrips.py v1_24_0+0000-b72eb3fabc8
<configuration>
    <net-file value="santafe_v2v.net.xml"/>
    <additional-files value="vehiculos_stfe.add.xml"/>
    <route-file value="rutas_stfe.rou.xml"/>
    <trip-attributes value="type=&quot;coche_estandar&quot;"/>
    <end value="1000.0"/>
    <period value="2.0"/>
</configuration>
-->

<routes xmlns:xsi="http://www.w3.org/2001/XMLSchema-instance" xsi:noNamespaceSchemaLocation="http://sumo.dlr.de/xsd/routes_file.xsd">
    <trip id="0" depart="0.00" from="569465874#2" to="569092395#0" type="coche_estandar"/>
    <trip id="1" depart="2.00" from="-130507169#0" to="130507168#0" type="coche_estandar"/>
    <trip id="2" depart="4.00" from="615309646#1" to="-127699786#2" type="coche_estandar"/>
    <trip id="3" depart="6.00" from="615309645#1" to="569103369#10" type="coche_estandar"/>
    <trip id="4" depart="8.00" from="1361349843#1" to="127696824#0" type="coche_estandar"/>
    <trip id="5" depart="10.00" from="922637493" to="1418720807" type="coche_estandar"/>
    <trip id="6" depart="12.00" from="615309646#0" to="569465872#0" type="coche_estandar"/>
    <trip id="7" depart="14.00" from="30497189#2" to="96663450" type="coche_estandar"/>
    <trip id="8" depart="16.00" from="-685752686#0" to="130507181" type="coche_estandar"/>
    <trip id="9" depart="18.00" from="452540974#0" to="202165074#2" type="coche_estandar"/>
    <trip id="10" depart="20.00" from="49886826" to="394222818" type="coche_estandar"/>
    <trip id="11" depart="22.00" from="127699786#0" to="569465872#0" type="coche_estandar"/>
    <trip id="12" depart="24.00" from="391847330#1" to="569092397#0" type="coche_estandar"/>
    <trip id="13" depart="26.00" from="130507171" to="-130507169#1" type="coche_estandar"/>
    <trip id="14" depart="28.00" from="1350430499#0" to="134976509#9" type="coche_estandar"/>
    <trip id="15" depart="30.00" from="130507168#0" to="879239735" type="coche_estandar"/>
    <trip id="16" depart="32.00" from="847269299#2" to="1352219592" type="coche_estandar"/>
    <trip id="17" depart="34.00" from="49886955#2" to="25026507" type="coche_estandar"/>
    <trip id="18" depart="36.00" from="134976509#3" to="134976509#2" type="coche_estandar"/>
    <trip id="19" depart="38.00" from="391847330#11" to="134976509#7" type="coche_estandar"/>
    <trip id="20" depart="40.00" from="391847332#1" to="847796007#1" type="coche_estandar"/>
    <trip id="21" depart="42.00" from="96674861" to="30293739#1" type="coche_estandar"/>
    <trip id="22" depart="44.00" from="-879223896" to="-202233549" type="coche_estandar"/>
    <trip id="23" depart="46.00" from="1085728453#1" to="394914098#1" type="coche_estandar"/>
    <trip id="24" depart="48.00" from="96674860" to="30293740#6" type="coche_estandar"/>
    <trip id="25" depart="50.00" from="569092397#0" to="30497189#2" type="coche_estandar"/>
    <trip id="26" depart="52.00" from="1085728453#2" to="265347388#0" type="coche_estandar"/>
    <trip id="27" depart="54.00" from="265347391" to="922637491" type="coche_estandar"/>
    <trip id="28" depart="56.00" from="847269299#1-AddedOnRampEdge" to="134976509#8" type="coche_estandar"/>
    <trip id="29" depart="58.00" from="30291983#3" to="127699800#0" type="coche_estandar"/>
    <trip id="30" depart="60.00" from="394222818" to="127696822#1" type="coche_estandar"/>
    <trip id="31" depart="62.00" from="580970328#1" to="30293740#6" type="coche_estandar"/>
    <trip id="32" depart="64.00" from="-127699786#1" to="1361349843#1" type="coche_estandar"/>
    <trip id="33" depart="66.00" from="847269299#2" to="913308237#1" type="coche_estandar"/>
    <trip id="34" depart="68.00" from="580970326-AddedOffRampEdge" to="1161214183-AddedOnRampEdge" type="coche_estandar"/>
    <trip id="35" depart="70.00" from="96674860" to="488378187" type="coche_estandar"/>
    <trip id="36" depart="72.00" from="265347385#1" to="30293740#1" type="coche_estandar"/>
    <trip id="37" depart="74.00" from="1361349843#0" to="391847341" type="coche_estandar"/>
    <trip id="38" depart="76.00" from="130507176" to="130507177" type="coche_estandar"/>
    <trip id="39" depart="78.00" from="569465872#1" to="569092394#1" type="coche_estandar"/>
    <trip id="40" depart="80.00" from="25026494" to="1486430351" type="coche_estandar"/>
    <trip id="41" depart="82.00" from="127699800#0" to="265347392" type="coche_estandar"/>
    <trip id="42" depart="84.00" from="134976508#0" to="847800382#1" type="coche_estandar"/>
    <trip id="43" depart="86.00" from="96663429#1" to="847800382#2" type="coche_estandar"/>
    <trip id="44" depart="88.00" from="202165074#0" to="96663467#2" type="coche_estandar"/>
    <trip id="45" depart="90.00" from="134976509#3" to="580970328#1" type="coche_estandar"/>
    <trip id="46" depart="92.00" from="922637493" to="96674860" type="coche_estandar"/>
    <trip id="47" depart="94.00" from="391847330#1" to="569103370#1" type="coche_estandar"/>
    <trip id="48" depart="96.00" from="96663429#1" to="391847330#7" type="coche_estandar"/>
    <trip id="49" depart="98.00" from="127696822#0" to="922637493" type="coche_estandar"/>
    <trip id="50" depart="100.00" from="-685752686#0" to="130507164#0" type="coche_estandar"/>
    <trip id="51" depart="102.00" from="847276258#1" to="134976509#10" type="coche_estandar"/>
    <trip id="52" depart="104.00" from="1350430499#0" to="570350749#1" type="coche_estandar"/>
    <trip id="53" depart="106.00" from="-475721227#1" to="297930670#1" type="coche_estandar"/>
    <trip id="54" depart="108.00" from="96674861" to="96674860" type="coche_estandar"/>
    <trip id="55" depart="110.00" from="-660048100" to="130507170" type="coche_estandar"/>
    <trip id="56" depart="112.00" from="847269299#3" to="847269299#2" type="coche_estandar"/>
    <trip id="57" depart="114.00" from="202165071#3" to="127696824#1" type="coche_estandar"/>
    <trip id="58" depart="116.00" from="394720552#0" to="96663467#3" type="coche_estandar"/>
    <trip id="59" depart="118.00" from="49886955#1" to="-127699786#2" type="coche_estandar"/>
    <trip id="60" depart="120.00" from="1160964646" to="1117521597" type="coche_estandar"/>
    <trip id="61" depart="122.00" from="1085728453#0-AddedOffRampEdge" to="391847330#0" type="coche_estandar"/>
    <trip id="62" depart="124.00" from="134976509#6" to="394222817" type="coche_estandar"/>
    <trip id="63" depart="126.00" from="452540974#0" to="134976509#8" type="coche_estandar"/>
    <trip id="64" depart="128.00" from="30291979#3" to="847796007#4" type="coche_estandar"/>
    <trip id="65" depart="130.00" from="-127699786#2" to="580970326-AddedOffRampEdge" type="coche_estandar"/>
    <trip id="66" depart="132.00" from="452540974#1" to="134976509#7" type="coche_estandar"/>
    <trip id="67" depart="134.00" from="1175821867#1" to="1161214183-AddedOnRampEdge" type="coche_estandar"/>
    <trip id="68" depart="136.00" from="580970328#2" to="847269299#4" type="coche_estandar"/>
    <trip id="69" depart="138.00" from="615309646#1" to="847269299#3" type="coche_estandar"/>
    <trip id="70" depart="140.00" from="615309646#1" to="134976509#9" type="coche_estandar"/>
    <trip id="71" depart="142.00" from="607127536" to="1085728453#4" type="coche_estandar"/>
    <trip id="72" depart="144.00" from="847269299#1" to="686911613" type="coche_estandar"/>
    <trip id="73" depart="146.00" from="265347393#1" to="1350430499#1" type="coche_estandar"/>
    <trip id="74" depart="148.00" from="-130507168#2" to="130507167#2" type="coche_estandar"/>
    <trip id="75" depart="150.00" from="96663467#1" to="30497189#1" type="coche_estandar"/>
    <trip id="76" depart="152.00" from="96663435" to="127699800#0" type="coche_estandar"/>
    <trip id="77" depart="154.00" from="94792574" to="134976509#8" type="coche_estandar"/>
    <trip id="78" depart="156.00" from="1085728453#1" to="265347388#0" type="coche_estandar"/>
    <trip id="79" depart="158.00" from="394222817" to="30293739#1" type="coche_estandar"/>
    <trip id="80" depart="160.00" from="202165074#2" to="391847330#6" type="coche_estandar"/>
    <trip id="81" depart="162.00" from="134976509#0" to="569103369#7" type="coche_estandar"/>
    <trip id="82" depart="164.00" from="-127699786#1" to="847800382#2" type="coche_estandar"/>
    <trip id="83" depart="166.00" from="570350747" to="533281878#1-AddedOffRampEdge" type="coche_estandar"/>
    <trip id="84" depart="168.00" from="533281878#1" to="1390621112#1" type="coche_estandar"/>
    <trip id="85" depart="170.00" from="-127699786#1" to="134976515#2" type="coche_estandar"/>
    <trip id="86" depart="172.00" from="25026548" to="391847330#9" type="coche_estandar"/>
    <trip id="87" depart="174.00" from="66779640" to="570350749#1" type="coche_estandar"/>
    <trip id="88" depart="176.00" from="130507163#1" to="-130507168#2" type="coche_estandar"/>
    <trip id="89" depart="178.00" from="25026513" to="42639771#0" type="coche_estandar"/>
    <trip id="90" depart="180.00" from="127699803" to="569103369#1" type="coche_estandar"/>
    <trip id="91" depart="182.00" from="30291983#1" to="134976509#10" type="coche_estandar"/>
    <trip id="92" depart="184.00" from="49886955#2" to="-127699786#2" type="coche_estandar"/>
    <trip id="93" depart="186.00" from="570392407#0" to="580970326-AddedOffRampEdge" type="coche_estandar"/>
    <trip id="94" depart="188.00" from="127699786#2" to="922637492#1" type="coche_estandar"/>
    <trip id="95" depart="190.00" from="265347392" to="611387511#0" type="coche_estandar"/>
    <trip id="96" depart="192.00" from="533281878#1-AddedOffRampEdge" to="96663467#3" type="coche_estandar"/>
    <trip id="97" depart="194.00" from="847276258#1" to="394720552#1" type="coche_estandar"/>
    <trip id="98" depart="196.00" from="569103371#1" to="30291983#4" type="coche_estandar"/>
    <trip id="99" depart="198.00" from="580970326-AddedOffRampEdge" to="30293740#3" type="coche_estandar"/>
    <trip id="100" depart="200.00" from="394914098#1" to="134976512#1" type="coche_estandar"/>
    <trip id="101" depart="202.00" from="25026519" to="847796007#3" type="coche_estandar"/>
    <trip id="102" depart="204.00" from="391847332#1" to="569103369#1" type="coche_estandar"/>
    <trip id="103" depart="206.00" from="202165074#1" to="-127699786#2" type="coche_estandar"/>
    <trip id="104" depart="208.00" from="1418720806#1" to="570392407#0" type="coche_estandar"/>
    <trip id="105" depart="210.00" from="130507169#0" to="130507176" type="coche_estandar"/>
    <trip id="106" depart="212.00" from="1352264277#1" to="569092395#1" type="coche_estandar"/>
    <trip id="107" depart="214.00" from="96674861" to="202165071#3" type="coche_estandar"/>
    <trip id="108" depart="216.00" from="49886955#0" to="580970328#0" type="coche_estandar"/>
    <trip id="109" depart="218.00" from="49886955#0" to="570392407#0" type="coche_estandar"/>
    <trip id="110" depart="220.00" from="1117521596" to="533281878#1-AddedOffRampEdge" type="coche_estandar"/>
    <trip id="111" depart="222.00" from="569103369#3" to="570392407#5" type="coche_estandar"/>
    <trip id="112" depart="224.00" from="127696824#2" to="394222818" type="coche_estandar"/>
    <trip id="113" depart="226.00" from="570350749#1" to="1117521597" type="coche_estandar"/>
    <trip id="114" depart="228.00" from="66779640" to="94792574" type="coche_estandar"/>
    <trip id="115" depart="230.00" from="1350301308" to="569092395#0" type="coche_estandar"/>
    <trip id="116" depart="232.00" from="569103369#1" to="394914098#1" type="coche_estandar"/>
    <trip id="117" depart="234.00" from="1082173941" to="580970327#0" type="coche_estandar"/>
    <trip id="118" depart="236.00" from="30293739#0" to="1486430351" type="coche_estandar"/>
    <trip id="119" depart="238.00" from="1085728453#0-AddedOffRampEdge" to="922637493" type="coche_estandar"/>
    <trip id="120" depart="240.00" from="569103369#8" to="265347388#0" type="coche_estandar"/>
    <trip id="121" depart="242.00" from="569465874#1" to="96663429#0" type="coche_estandar"/>
    <trip id="122" depart="244.00" from="134976509#5" to="615309645#0" type="coche_estandar"/>
    <trip id="123" depart="246.00" from="265347384#1" to="569465872#0" type="coche_estandar"/>
    <trip id="124" depart="248.00" from="685752686#0" to="-879239734" type="coche_estandar"/>
    <trip id="125" depart="250.00" from="1361349843#1" to="847269299#2" type="coche_estandar"/>
    <trip id="126" depart="252.00" from="569103369#6" to="134976512#1" type="coche_estandar"/>
    <trip id="127" depart="254.00" from="30291979#3" to="570392407#1" type="coche_estandar"/>
    <trip id="128" depart="256.00" from="30291983#0" to="607127532#1" type="coche_estandar"/>
    <trip id="129" depart="258.00" from="-879239735" to="130507177" type="coche_estandar"/>
    <trip id="130" depart="260.00" from="569103369#1" to="1350430499#1" type="coche_estandar"/>
    <trip id="131" depart="262.00" from="30497189#0" to="265347385#1" type="coche_estandar"/>
    <trip id="132" depart="264.00" from="569103369#6" to="134976511#1" type="coche_estandar"/>
    <trip id="133" depart="266.00" from="134976508#1" to="1160964646" type="coche_estandar"/>
    <trip id="134" depart="268.00" from="127699800#1" to="1160964646" type="coche_estandar"/>
    <trip id="135" depart="270.00" from="30497189#2" to="570392407#4" type="coche_estandar"/>
    <trip id="136" depart="272.00" from="30291979#1" to="569103371#2" type="coche_estandar"/>
    <trip id="137" depart="274.00" from="96663463" to="30293740#4" type="coche_estandar"/>
    <trip id="138" depart="276.00" from="30497189#2" to="134976512#1" type="coche_estandar"/>
    <trip id="139" depart="278.00" from="96663450" to="391847330#0" type="coche_estandar"/>
    <trip id="140" depart="280.00" from="569103369#2" to="1161214183" type="coche_estandar"/>
    <trip id="141" depart="282.00" from="847267926" to="30291979#3" type="coche_estandar"/>
    <trip id="142" depart="284.00" from="847269299#1" to="391847330#5" type="coche_estandar"/>
    <trip id="143" depart="286.00" from="391847330#11" to="1350430499#1" type="coche_estandar"/>
    <trip id="144" depart="288.00" from="96674826" to="1117521598" type="coche_estandar"/>
    <trip id="145" depart="290.00" from="580970326" to="394222817" type="coche_estandar"/>
    <trip id="146" depart="292.00" from="30293740#4" to="265347393#1" type="coche_estandar"/>
    <trip id="147" depart="294.00" from="96663467#4" to="1350430499#1" type="coche_estandar"/>
    <trip id="148" depart="296.00" from="394914094#1" to="394222818" type="coche_estandar"/>
    <trip id="149" depart="298.00" from="569465874#3" to="913308237#1" type="coche_estandar"/>
    <trip id="150" depart="300.00" from="130507167#3" to="130507169#1" type="coche_estandar"/>
    <trip id="151" depart="302.00" from="533281878#0" to="127696824#0" type="coche_estandar"/>
    <trip id="152" depart="304.00" from="-127699786#1" to="265347393#1" type="coche_estandar"/>
    <trip id="153" depart="306.00" from="569103369#6" to="287411670" type="coche_estandar"/>
    <trip id="154" depart="308.00" from="569103369#0" to="847800382#1" type="coche_estandar"/>
    <trip id="155" depart="310.00" from="607127536" to="394914094#2" type="coche_estandar"/>
    <trip id="156" depart="312.00" from="678422633" to="-678422633" type="coche_estandar"/>
    <trip id="157" depart="314.00" from="570350749#1" to="391847330#4" type="coche_estandar"/>
    <trip id="158" depart="316.00" from="134976512#1" to="1160964721" type="coche_estandar"/>
    <trip id="159" depart="318.00" from="569103369#0" to="569103369#2" type="coche_estandar"/>
    <trip id="160" depart="320.00" from="-1486430351" to="265347387#1" type="coche_estandar"/>
    <trip id="161" depart="322.00" from="1350430500" to="134976509#3" type="coche_estandar"/>
    <trip id="162" depart="324.00" from="922637491" to="96674861" type="coche_estandar"/>
    <trip id="163" depart="326.00" from="569092395#0" to="134976511#1" type="coche_estandar"/>
    <trip id="164" depart="328.00" from="-1486430351" to="570392407#1" type="coche_estandar"/>
    <trip id="165" depart="330.00" from="847800381#4" to="127699800#1" type="coche_estandar"/>
    <trip id="166" depart="332.00" from="30291983#0" to="-914739223" type="coche_estandar"/>
    <trip id="167" depart="334.00" from="1418720806#0" to="1418720806#1" type="coche_estandar"/>
    <trip id="168" depart="336.00" from="569092394#1" to="686911613" type="coche_estandar"/>
    <trip id="169" depart="338.00" from="265347391" to="1352219592" type="coche_estandar"/>
    <trip id="170" depart="340.00" from="1350430500" to="96663429#1" type="coche_estandar"/>
    <trip id="171" depart="342.00" from="25026494" to="30293739#2" type="coche_estandar"/>
    <trip id="172" depart="344.00" from="96663467#3" to="49886955#1" type="coche_estandar"/>
    <trip id="173" depart="346.00" from="127699797#1" to="202165074#1" type="coche_estandar"/>
    <trip id="174" depart="348.00" from="570392407#2" to="394914094#2" type="coche_estandar"/>
    <trip id="175" depart="350.00" from="371292660#1" to="847800382#2-AddedOnRampEdge" type="coche_estandar"/>
    <trip id="176" depart="352.00" from="265347385#1" to="569103369#10" type="coche_estandar"/>
    <trip id="177" depart="354.00" from="1117304814" to="96663450" type="coche_estandar"/>
    <trip id="178" depart="356.00" from="394222818" to="134976508#1" type="coche_estandar"/>
    <trip id="179" depart="358.00" from="371292660#2" to="1082173941" type="coche_estandar"/>
    <trip id="180" depart="360.00" from="569103370#1" to="30293739#0" type="coche_estandar"/>
    <trip id="181" depart="362.00" from="847800382#2" to="30293739#0" type="coche_estandar"/>
    <trip id="182" depart="364.00" from="134976509#7" to="607127532#0" type="coche_estandar"/>
    <trip id="183" depart="366.00" from="391847332#2" to="96674861" type="coche_estandar"/>
    <trip id="184" depart="368.00" from="30291979#3" to="1175822180#1" type="coche_estandar"/>
    <trip id="185" depart="370.00" from="265347391" to="1361349843#0" type="coche_estandar"/>
    <trip id="186" depart="372.00" from="127699797#1" to="569103369#10" type="coche_estandar"/>
    <trip id="187" depart="374.00" from="570350749#0" to="569103369#6" type="coche_estandar"/>
    <trip id="188" depart="376.00" from="96663467#0" to="30291983#0" type="coche_estandar"/>
    <trip id="189" depart="378.00" from="-134976511#1" to="30291983#3" type="coche_estandar"/>
    <trip id="190" depart="380.00" from="847269299#1-AddedOnRampEdge" to="265347389#0" type="coche_estandar"/>
    <trip id="191" depart="382.00" from="49886955#1" to="127696822#1" type="coche_estandar"/>
    <trip id="192" depart="384.00" from="1361349843#0" to="569103369#0" type="coche_estandar"/>
    <trip id="193" depart="386.00" from="803442649" to="803442649" type="coche_estandar"/>
    <trip id="194" depart="388.00" from="202165074#0" to="1352219592" type="coche_estandar"/>
    <trip id="195" depart="390.00" from="569103371#1" to="570392407#2" type="coche_estandar"/>
    <trip id="196" depart="392.00" from="847800382#1" to="96674861" type="coche_estandar"/>
    <trip id="197" depart="394.00" from="570350749#1" to="265347388#0" type="coche_estandar"/>
    <trip id="198" depart="396.00" from="-914739223" to="42639771#1" type="coche_estandar"/>
    <trip id="199" depart="398.00" from="847269299#1" to="265347389#1" type="coche_estandar"/>
    <trip id="200" depart="400.00" from="569103369#10" to="847796007#3" type="coche_estandar"/>
    <trip id="201" depart="402.00" from="1175821867#1" to="30497189#0" type="coche_estandar"/>
    <trip id="202" depart="404.00" from="391847330#2" to="607127532#1" type="coche_estandar"/>
    <trip id="203" depart="406.00" from="847269299#1" to="394720553#1" type="coche_estandar"/>
    <trip id="204" depart="408.00" from="134976509#0" to="134976509#5" type="coche_estandar"/>
    <trip id="205" depart="410.00" from="127696822#0" to="265347389#0" type="coche_estandar"/>
    <trip id="206" depart="412.00" from="1390621112#1" to="391847332#2" type="coche_estandar"/>
    <trip id="207" depart="414.00" from="30291979#1" to="134976508#0" type="coche_estandar"/>
    <trip id="208" depart="416.00" from="391847330#5" to="391847330#6" type="coche_estandar"/>
    <trip id="209" depart="418.00" from="96663463" to="49886955#1" type="coche_estandar"/>
    <trip id="210" depart="420.00" from="134976509#6" to="391847330#2" type="coche_estandar"/>
    <trip id="211" depart="422.00" from="569092398" to="569465874#3" type="coche_estandar"/>
    <trip id="212" depart="424.00" from="30291983#2" to="847796007#3" type="coche_estandar"/>
    <trip id="213" depart="426.00" from="134976512#0" to="607127536" type="coche_estandar"/>
    <trip id="214" depart="428.00" from="394222818" to="202165071#3-AddedOnRampEdge" type="coche_estandar"/>
    <trip id="215" depart="430.00" from="452540974#1" to="394914094#1" type="coche_estandar"/>
    <trip id="216" depart="432.00" from="569092396" to="569103371#1" type="coche_estandar"/>
    <trip id="217" depart="434.00" from="42639771#0" to="847796007#3" type="coche_estandar"/>
    <trip id="218" depart="436.00" from="265347386" to="391847330#7" type="coche_estandar"/>
    <trip id="219" depart="438.00" from="569465872#2" to="-914739223" type="coche_estandar"/>
    <trip id="220" depart="440.00" from="134976513#1" to="570350747" type="coche_estandar"/>
    <trip id="221" depart="442.00" from="127699786#2" to="1161215336#0" type="coche_estandar"/>
    <trip id="222" depart="444.00" from="615309646#0" to="570350747" type="coche_estandar"/>
    <trip id="223" depart="446.00" from="1361349843#0" to="1117521597" type="coche_estandar"/>
    <trip id="224" depart="448.00" from="94792574" to="1175821867#1" type="coche_estandar"/>
    <trip id="225" depart="450.00" from="569103371#3" to="96663467#0" type="coche_estandar"/>
    <trip id="226" depart="452.00" from="96663429#0" to="611387511#1" type="coche_estandar"/>
    <trip id="227" depart="454.00" from="202165071#1" to="607127532#0" type="coche_estandar"/>
    <trip id="228" depart="456.00" from="265347391" to="569092394#1" type="coche_estandar"/>
    <trip id="229" depart="458.00" from="569092395#0" to="391847332#1" type="coche_estandar"/>
    <trip id="230" depart="460.00" from="678422632" to="879239733" type="coche_estandar"/>
    <trip id="231" depart="462.00" from="134976516#0" to="30291979#3" type="coche_estandar"/>
    <trip id="232" depart="464.00" from="-914739223" to="847269299#5" type="coche_estandar"/>
    <trip id="233" depart="466.00" from="1160964721" to="287411670" type="coche_estandar"/>
    <trip id="234" depart="468.00" from="569092394#1" to="569465874#3" type="coche_estandar"/>
    <trip id="235" depart="470.00" from="570350747" to="127696824#0" type="coche_estandar"/>
    <trip id="236" depart="472.00" from="202165071#3" to="265347389#1" type="coche_estandar"/>
    <trip id="237" depart="474.00" from="-914739223" to="569092397#1" type="coche_estandar"/>
    <trip id="238" depart="476.00" from="127699800#0" to="1160964721" type="coche_estandar"/>
    <trip id="239" depart="478.00" from="1117521596" to="391847330#2" type="coche_estandar"/>
    <trip id="240" depart="480.00" from="130507167#2" to="130507171" type="coche_estandar"/>
    <trip id="241" depart="482.00" from="847267926" to="1390621112#1" type="coche_estandar"/>
    <trip id="242" depart="484.00" from="1175821867#1" to="847796007#2" type="coche_estandar"/>
    <trip id="243" depart="486.00" from="-127699786#2" to="686911613" type="coche_estandar"/>
    <trip id="244" depart="488.00" from="1175821867#0" to="1161214183-AddedOnRampEdge" type="coche_estandar"/>
    <trip id="245" depart="490.00" from="134976508#0" to="127699797#1" type="coche_estandar"/>
    <trip id="246" depart="492.00" from="570350747" to="30293740#5" type="coche_estandar"/>
    <trip id="247" depart="494.00" from="580970328#1" to="30293739#2" type="coche_estandar"/>
    <trip id="248" depart="496.00" from="1085728453#1" to="30291983#3" type="coche_estandar"/>
    <trip id="249" depart="498.00" from="569092398" to="30291979#2" type="coche_estandar"/>
    <trip id="250" depart="500.00" from="1350430501" to="96674860" type="coche_estandar"/>
    <trip id="251" depart="502.00" from="30497189#0" to="287411670" type="coche_estandar"/>
    <trip id="252" depart="504.00" from="49886955#0" to="580970326" type="coche_estandar"/>
    <trip id="253" depart="506.00" from="1361349843#0" to="287411670" type="coche_estandar"/>
    <trip id="254" depart="508.00" from="202165071#3-AddedOnRampEdge" to="127696822#1" type="coche_estandar"/>
    <trip id="255" depart="510.00" from="391847332#2" to="391847330#11" type="coche_estandar"/>
    <trip id="256" depart="512.00" from="1418720806#2" to="533281878#0" type="coche_estandar"/>
    <trip id="257" depart="514.00" from="569103371#2" to="96663429#1" type="coche_estandar"/>
    <trip id="258" depart="516.00" from="393912339" to="202165071#3" type="coche_estandar"/>
    <trip id="259" depart="518.00" from="202165071#2" to="570392407#4" type="coche_estandar"/>
    <trip id="260" depart="520.00" from="391847330#5" to="615309644" type="coche_estandar"/>
    <trip id="261" depart="522.00" from="66779640" to="394720552#1" type="coche_estandar"/>
    <trip id="262" depart="524.00" from="134976509#4" to="127699800#1" type="coche_estandar"/>
    <trip id="263" depart="526.00" from="1361349843#1" to="-127699786#2" type="coche_estandar"/>
    <trip id="264" depart="528.00" from="847267926" to="391847330#2" type="coche_estandar"/>
    <trip id="265" depart="530.00" from="202165071#3" to="569103371#1" type="coche_estandar"/>
    <trip id="266" depart="532.00" from="580970328#1" to="391847330#3" type="coche_estandar"/>
    <trip id="267" depart="534.00" from="127696822#0" to="394720552#2" type="coche_estandar"/>
    <trip id="268" depart="536.00" from="569092395#1" to="134976512#0" type="coche_estandar"/>
    <trip id="269" depart="538.00" from="533281878#0" to="30291979#1" type="coche_estandar"/>
    <trip id="270" depart="540.00" from="265347386" to="134976512#0" type="coche_estandar"/>
    <trip id="271" depart="542.00" from="570392407#2" to="1117521596" type="coche_estandar"/>
    <trip id="272" depart="544.00" from="25026548" to="134976515#1" type="coche_estandar"/>
    <trip id="273" depart="546.00" from="569092396" to="30291979#1" type="coche_estandar"/>
    <trip id="274" depart="548.00" from="134976509#0" to="1390621112#1" type="coche_estandar"/>
    <trip id="275" depart="550.00" from="569103369#7" to="30291983#2" type="coche_estandar"/>
    <trip id="276" depart="552.00" from="-202233549" to="-130507167#3" type="coche_estandar"/>
    <trip id="277" depart="554.00" from="391847330#6" to="391847330#5" type="coche_estandar"/>
    <trip id="278" depart="556.00" from="569103369#9" to="25026548" type="coche_estandar"/>
    <trip id="279" depart="558.00" from="1350430501" to="611387511#0" type="coche_estandar"/>
    <trip id="280" depart="560.00" from="391847341" to="30293740#4" type="coche_estandar"/>
    <trip id="281" depart="562.00" from="127696824#2" to="30293739#1" type="coche_estandar"/>
    <trip id="282" depart="564.00" from="1085728453#3" to="30293739#1" type="coche_estandar"/>
    <trip id="283" depart="566.00" from="847800381#1" to="202165071#2" type="coche_estandar"/>
    <trip id="284" depart="568.00" from="393912342" to="570392407#2" type="coche_estandar"/>
    <trip id="285" depart="570.00" from="49886955#2" to="127699800#0" type="coche_estandar"/>
    <trip id="286" depart="572.00" from="580970327#1" to="30291983#0" type="coche_estandar"/>
    <trip id="287" depart="574.00" from="570392407#1" to="570392407#2" type="coche_estandar"/>
    <trip id="288" depart="576.00" from="265347388#1" to="847800382#2" type="coche_estandar"/>
    <trip id="289" depart="578.00" from="394914098#1" to="127696822#0" type="coche_estandar"/>
    <trip id="290" depart="580.00" from="134976516#0" to="134976512#1" type="coche_estandar"/>
    <trip id="291" depart="582.00" from="1350301308" to="265347393#1" type="coche_estandar"/>
    <trip id="292" depart="584.00" from="391847330#0" to="607127532#1" type="coche_estandar"/>
    <trip id="293" depart="586.00" from="615309646#1" to="49886826" type="coche_estandar"/>
    <trip id="294" depart="588.00" from="1085728453#0" to="847796007#1" type="coche_estandar"/>
    <trip id="295" depart="590.00" from="1390621112#0" to="569103369#9" type="coche_estandar"/>
    <trip id="296" depart="592.00" from="265347386" to="30293740#3" type="coche_estandar"/>
    <trip id="297" depart="594.00" from="1361349843#0" to="391847345#1" type="coche_estandar"/>
    <trip id="298" depart="596.00" from="569092396" to="134976515#1" type="coche_estandar"/>
    <trip id="299" depart="598.00" from="569103371#3" to="49886955#1" type="coche_estandar"/>
    <trip id="300" depart="600.00" from="847800381#1" to="847269299#1" type="coche_estandar"/>
    <trip id="301" depart="602.00" from="1352264277#0" to="391847332#1" type="coche_estandar"/>
    <trip id="302" depart="604.00" from="1161215336#0" to="202165071#3" type="coche_estandar"/>
    <trip id="303" depart="606.00" from="96663429#1" to="569103369#10" type="coche_estandar"/>
    <trip id="304" depart="608.00" from="202165071#4" to="607127532#1" type="coche_estandar"/>
    <trip id="305" depart="610.00" from="569092398" to="30293740#5" type="coche_estandar"/>
    <trip id="306" depart="612.00" from="202165071#0" to="202165074#1" type="coche_estandar"/>
    <trip id="307" depart="614.00" from="914739223" to="30291979#1" type="coche_estandar"/>
    <trip id="308" depart="616.00" from="-678422633" to="685752687" type="coche_estandar"/>
    <trip id="309" depart="618.00" from="1082173941" to="580970326-AddedOffRampEdge" type="coche_estandar"/>
    <trip id="310" depart="620.00" from="-1486430351" to="1418720807" type="coche_estandar"/>