<?xml version="1.0" encoding="UTF-8"?>

<!-- generated on 2026-05-20 12:17:41.749942 by randomTrips.py v1_24_0+0000-b72eb3fabc8
<configuration>
    <net-file value="sanfrancisco_v2v.net.xml"/>
    <additional-files value="vehiculos.add.xml"/>
    <route-file value="rutas_sf.rou.xml"/>
    <trip-attributes value="type=&quot;coche_estandar&quot;"/>
    <end value="1000.0"/>
    <period value="2.0"/>
</configuration>
-->

<!-- generated on 2026-05-20 12:17:41 by Eclipse SUMO duarouter Version 1.24.0
<duarouterConfiguration xmlns:xsi="http://www.w3.org/2001/XMLSchema-instance" xsi:noNamespaceSchemaLocation="http://sumo.dlr.de/xsd/duarouterConfiguration.xsd">

    <input>
        <net-file value="sanfrancisco_v2v.net.xml"/>
        <additional-files value="vehiculos.add.xml"/>
        <route-files value="trips.trips.xml"/>
    </input>

    <output>
        <output-file value="rutas_sf.rou.xml"/>
        <alternatives-output value="NUL"/>
    </output>

    <time>
        <begin value="0"/>
        <end value="1000.0"/>
    </time>

    <report>
        <no-warnings value="true"/>
        <ignore-errors value="true"/>
        <no-step-log value="true"/>
    </report>

</duarouterConfiguration>
-->

<routes xmlns:xsi="http://www.w3.org/2001/XMLSchema-instance" xsi:noNamespaceSchemaLocation="http://sumo.dlr.de/xsd/routes_file.xsd">
    <vType id="coche_estandar" length="4.50" maxSpeed="40.00" vClass="passenger" emissionClass="HBEFA4/PC_petrol_Euro-6c" accel="2.6" decel="4.5" sigma="0.5"/>
    <vehicle id="0" type="coche_estandar" depart="0.00">
        <route edges="425516615#1 1483073238#0 1483073238#1 734004334#1 734004334#2 734004334#4 734004334#5 425516617#2 425516617#3 425516617#4 425516617#5 425516617#8 -769489484#2 -769489484#1 -769489484#0 -1459358938#6 -1459358938#4 -1459358938#3 -1459358938#2 -1459358938#1 -1459358592#0 -769489483#1 -769489483#0 -288065247#1 -1266496430#6"/>
    </vehicle>
    <vehicle id="1" type="coche_estandar" depart="2.00">
        <route edges="1112271466#0 1112271467#1 1459358674#1 1112271468 1112271469#1 1062095136#0 461017935#1 461017935#2 461017935#3 406581245#0 417087411#7 983872712#0 1032777734"/>
    </vehicle>
    <vehicle id="2" type="coche_estandar" depart="4.00">
        <route edges="619979095#1 619979095#2 204884397#0 204884397#1 228201785#0 228201785#1 228201785#2 619979111#0 619979111#1 772972816 225806043#1 619979101 619979109#0 619979109#1 619979109#2 619979109#3 739669067#0 739669067#1 739669067#2 772766540 30832507#1 30832507#2 1035093272#0 27400639#1 1112271467#1 1459358674#1 1112271468 1112271469#1 1062095136#0 461017935#1"/>
    </vehicle>
    <vehicle id="3" type="coche_estandar" depart="6.00">
        <route edges="254756525#3 1061779494#1 425516649#0 287958606#1 287958606#2 287958606#3 287958606#4 287958606#7 287958606#8 287958606#9 414948593#1 414948593#2 414948593#3 91181759#0 91181759#1 1201621437#0 1201621437#1 674757876#1 1373369088 1175773365#0 1175773365#1 91181760#1 1432730526#0 27166421#2 27166421#3 27166421#6 27166421#7 27166421#8 27166421#9 620169745#0 620169745#1 620169745#4 620169745#5 133376120#1 133376120#2 133376120#3 133376120#4 -133376120#4 -133376120#3 -133376120#2 -133376120#1"/>
    </vehicle>
    <vehicle id="4" type="coche_estandar" depart="8.00">
        <route edges="-91182067#2 513676833#1 91182068#0 513676832#1 -513676830#1 674757882#2 674757882#3 -1201621437#1 -1201621437#0 -91181759#1 -91181759#0 -28841115#7 -28841115#6 -28841115#5 -28841115#2 -28841115#1 28841115#1 28841115#2"/>
    </vehicle>
    <vehicle id="5" type="coche_estandar" depart="10.00">
        <route edges="-133376114#2 133376114#2 133376114#6 91182066#2 8917351#2 461084153#6 461084153#7 461084153#8 91182069#2 1466871688#0 1466871688#2 -28843615#1 -397146712#0 -397146711 -417099350 8921866 29023785#1 397146713#0 28841117#1 1030276071 417400763#0 290080810#1 981636498#1 981636498#2 89782522#0 89782522#1 89782522#2 1024537343#0 1024537343#1 225806056#0 225806056#1 777343790#1 934194966#0 934194966#1 86334994#1 86334994#3 86334994#4 86334994#5 111552058#1 -328876706#5 -328876706#4 -328876706#1 8916935#1 -88597577#1"/>
    </vehicle>
    <vehicle id="6" type="coche_estandar" depart="12.00">
        <route edges="425516617#2 29059495#0 29059495#2 29059495#3 461084153#5 461084153#6 461084153#7 461084153#8 91182069#2 1466871688#0 1466871688#2 -28843615#1 -397146712#0 -397146711 -417099350 8921866 29023785#1 397146713#0 28841117#1 1030276071 417400763#0 290080810#1 981636498#1 981636498#2 89782522#0 89782522#1 89782522#2 1024537343#0 1024537343#1 225806056#0 225806056#1 777343790#1 934194966#0 934194966#1 86334994#1 86334994#3 86334994#4 86334994#5 111552058#1 -328876706#5 -328876706#4 -328876706#1 328876704"/>
    </vehicle>
    <vehicle id="7" type="coche_estandar" depart="14.00">
        <route edges="-945294696#0 8920734#1 224316527#1 254971068#1 254971068#2 254396709#1 254396709#2 287958606#1 287958606#2 287958606#3 287958606#4 287958606#7 287958606#8 287958606#9 414948593#1 414948593#2 414948593#3 91181759#0 91181759#1 1201621437#0 1201621437#1 674757876#1 1373369088 1175773365#0 1175773365#1 91181760#1 1432730526#0 100400941#1 100400941#4 100400941#5 27166406#2 27166406#3 27166406#4 27166444#1 968937450#1 1032777735#1 1032777735#2 1062095135#1 1062095135#2 1062095135#3 461017935#1 461017935#2 461017935#3 406581245#0"/>
    </vehicle>
    <vehicle id="8" type="coche_estandar" depart="16.00">
        <route edges="686250326#2 1053826376 742976231#0 742976231#1 254448247#1 254448247#2 30832507#1 30832507#2 30832504#1 1050261012 290052331#1 406581247#1 1236509217 746808402#1 667569398#2 667569395 417947135 417947134 111586257#1 111586254#1 111586254#2 111586254#3 111586254#4 721174653#0 -721174653#0 -111586254#4 -111586254#3 -111586254#2"/>
    </vehicle>
    <vehicle id="9" type="coche_estandar" depart="18.00">
        <route edges="680243311#1 133733593#1 133733593#2 254297759#1 254297759#2 397269729#1 408575054#0 397269730#1 397269730#2 397269730#3 287958606#7 287958606#8 287958606#9 414948593#1 414948593#2 414948593#3 91181759#0 91181759#1 1201621437#0 1201621437#1 674757881#2 502795940#1"/>
    </vehicle>
    <vehicle id="10" type="coche_estandar" depart="20.00">
        <route edges="144489136#1 144489136#2 -204884397#1 -204884397#0 -228196396#1 -228196396#0 619979116#0 619979116#1 619979116#2 619979116#3 -224384019#2 -224384019#1 619979102#0 619979102#1 619979102#2 224384018#0 -224384018#0 -619979102#2 -619979102#1"/>
    </vehicle>
    <vehicle id="11" type="coche_estandar" depart="22.00">
        <route edges="91182067#2 91182067#3 30029172#3 30029172#4 30029172#8 30029172#9 30029172#10 30029172#11 30029172#14 1459358591#1 1459358938#1 1459358938#2"/>
    </vehicle>
    <vehicle id="12" type="coche_estandar" depart="24.00">
        <route edges="-27166421#7 -27166421#6 -27166421#3 -27166421#2 -1432730526#0 -91181760#1 -1175773365#1 -1175773365#0 -1373369088 -674757876#1 -1201621437#1 -1201621437#0 -91181759#1 -91181759#0 -414948593#3 -414948593#2 -414948593#1 -287958606#9 -287958606#8 -287958606#7 -287958606#4 -287958606#3"/>
    </vehicle>
    <vehicle id="13" type="coche_estandar" depart="26.00">
        <route edges="746808418#1 513701212#0 513701212#1 1024170338#0 1024170338#1 406581247#1 1236509217 84654238#0 512523366#1 674757887#2 674757887#3 1459358940#1 1459358940#2 1459358940#3 1459358940#4 286003244#1 286003244#2 286003244#3 286003244#4 286003244#5 513676819 1046480747 1046480748#0 397269729#1 408575054#0"/>
    </vehicle>
    <vehicle id="14" type="coche_estandar" depart="28.00">
        <route edges="681479565#1 254306572 1052676448 779123577#0 779123577#1 513676820#0 224316527#1 254971068#1 254971068#2 254396709#1 254396709#2 287958606#1 287958606#2 287958606#3 287958606#4 287958606#7 287958606#8 287958606#9 414948593#1 414948593#2 414948593#3 91181759#0 91181759#1 1201621437#0 1201621437#1 674757881#2 674757880#1 674757879#1 -512523366#1 -84654238#0 -1236509217 -406581247#1 -290052331#1 -781122181#1 377646101#2 1035093272#0 27400639#1 546048996#1"/>
    </vehicle>
    <vehicle id="15" type="coche_estandar" depart="30.00">
        <route edges="29059494#3 29059494#5 -29059494#5 -29059494#3 -29059494#2 27166466#1 27166466#2 27166466#3 27166466#6 27166466#7 1459358935#1 254297761#1 254297761#2 254297761#3 254297761#4 968937448#1 968937448#2 968937447#1"/>
    </vehicle>
    <vehicle id="16" type="coche_estandar" depart="32.00">
        <route edges="721174654 -681183503 417099350"/>
    </vehicle>
    <vehicle id="17" type="coche_estandar" depart="34.00">
        <route edges="770522137#1 770522137#2 770522137#3 1459358938#1 1459358938#2 1459358938#3 1459358938#4 1459358938#6 461084153#0 461084153#1 461084153#2 461084153#3 461084153#4 461084153#5 461084153#6 461084153#7 461084153#8 91182069#2 1466871688#0 1466871688#2 -28843615#1 -397146712#0 -397146711 -417099350 8921866 29023785#1 397146713#0"/>
    </vehicle>
    <vehicle id="18" type="coche_estandar" depart="36.00">
        <route edges="502795940#5 502795940#6 27397539#1 100400941#1 100400941#4 100400941#5 -769489484#6 -769489484#5 -769489484#2 -769489484#1 -769489484#0 -1459358938#6 -1459358938#4 -1459358938#3"/>
    </vehicle>
    <vehicle id="19" type="coche_estandar" depart="38.00">
        <route edges="1024170338#0 1024170338#1 406581247#1 1236509217 84654238#0 512523366#1 674757887#2 674757887#3 674757886#1 674757886#2 674757885#1 674757876#1 1373369088 1175773365#0 1175773365#1 29059494#2 29059494#3 29059494#5 29059495#0 29059495#2 29059495#3 29059495#4 29059495#5 -133376114#6 -133376114#2 -133376114#1 1266496430#1 1266496430#2"/>
    </vehicle>
    <vehicle id="20" type="coche_estandar" depart="40.00">
        <route edges="-254396719#2 254396709#1 254396709#2 287958606#1 287958606#2 287958606#3 287958606#4 287958606#7 287958606#8 287958606#9 414948593#1 414948593#2 414948593#3 91181759#0 91181759#1 1201621437#0 1201621437#1 674757881#2 674757880#1 674757879#1 -512523366#1 -84654238#0 -1236509217 -406581247#1 -290052331#1 -781122181#1 377646101#2 1035093272#0"/>
    </vehicle>
    <vehicle id="21" type="coche_estandar" depart="42.00">
        <route edges="-287958606#2 -287958606#1 287958607#2 1112996372#1 706543479#0 513676825#1 133733593#1 133733593#2 254297764#1 254297764#2 -721174653#0 -111586254#4 -111586254#3 -111586254#2 -111586254#1 111586254#1 111586254#2 111586254#3 111586254#4"/>
    </vehicle>
    <vehicle id="22" type="coche_estandar" depart="44.00">
        <route edges="417400763#0 290080810#1 981636499#1 981636499#2 981636499#3 163784093#0 163784093#1 184956229#1 513676826 425624293#0 28841123#1 28841123#2 224316520#1 224316520#2"/>
    </vehicle>
    <vehicle id="23" type="coche_estandar" depart="46.00">
        <route edges="204884387#1 619979115#0 619979115#1 417166165#0 417166165#1 417166168#0 417166168#1 770023605#0 224316520#1 224316520#2 254297759#1 254297759#2 397269729#1 408575054#0 397269730#1 397269730#2 397269730#3 287958606#7 287958606#8 287958606#9 414948593#1 414948593#2 414948593#3 91181759#0 91181759#1 1201621437#0 1201621437#1 674757876#1 1373369088 1175773365#0 1175773365#1 91181760#1 1432730526#0 100400941#1 100400941#4"/>
    </vehicle>
    <vehicle id="24" type="coche_estandar" depart="48.00">
        <route edges="1062095135#1 1062095135#2 1062095135#3 461017935#1 461017935#2 461017935#3 406581245#0 417087411#7 983872712#0 968937452#1 254758126#1 254758126#4 408572569#1 -100400941#8 -100400941#5 -100400941#4 -100400941#1 -1432730526#0 -91181760#1 -1175773365#1 -1175773365#0 -1373369088 -674757876#1 -1201621437#1 -1201621437#0 -91181759#1 -91181759#0 -414948593#3 -414948593#2 -414948593#1 -287958606#9 -287958606#8 -287958606#7 224316521#2 425516647#1 406944780#0 91182062#1 91182062#2 8922229#1"/>
    </vehicle>
    <vehicle id="25" type="coche_estandar" depart="50.00">
        <route edges="-620169745#0 -27166421#9 -27166421#8 -27166421#7 -27166421#6 425516617#8 769489484#5 769489484#6 27166406#2 27166406#3 27166406#4 27166444#1 968937450#1 1032777735#1 1032777735#2 1062095135#1 1062095135#2 1062095135#3 254758124#1 254758125#1 254758125#3 277480563#1 542267688#0 542267688#1"/>
    </vehicle>
    <vehicle id="26" type="coche_estandar" depart="52.00">
        <route edges="-619979101 619979101 619979109#0 619979109#1 619979109#2 619979109#3 739669067#0 739669067#1 739669067#2 772766540 30832507#1 30832507#2 1035093272#0 27400639#1 546048996#1 546048996#2 277480564#1 277480564#2 254758120#1 254758120#2 254758120#3 989334074#4 1193701323#1 225847514#0"/>
    </vehicle>
    <vehicle id="27" type="coche_estandar" depart="54.00">
        <route edges="981636498#1 981636498#2 627329159#0 627329159#1 772972818 627706100 781122181#1 290052331#1 406581247#1 1236509217 84654238#0 512523366#1 674757887#2 674757887#3 674757886#1 674757886#2 674757885#1 674757884#2 425516617#2 425516617#3 425516617#4 425516617#5 425516617#8 425516617#11 425516617#12 425516617#13 425516617#16 425516617#17"/>
    </vehicle>
    <vehicle id="28" type="coche_estandar" depart="56.00">
        <route edges="328876706#1 328876706#4 328876706#5 111552058#2 255330068#0 255330068#1 255330068#2 88597544#0 88597544#1 88597544#2 144489134#0 144489134#1 184956229#1 513676826 425624293#0 111586254#1 111586254#2 111586254#3 111586254#4 721174653#0 28841120#1 721174654 -681183503 417099350 397146711 397146712#0 734004334#1 734004334#2 734004334#4 734004334#5 425516617#2 425516617#3 425516617#4 425516617#5 27166421#6 27166421#7 461084153#2 461084153#3 461084153#4"/>
    </vehicle>
    <vehicle id="29" type="coche_estandar" depart="58.00">
        <route edges="746808396 -513676826 -184956229#1 144489134#4 1030287469#0 290080810#1 981636498#1 981636498#2 89782522#0 89782522#1 89782522#2 1024537343#0 1024537343#1 225806056#0 225806056#1 777343790#1 934194966#0 934194966#1 86334994#1 86334994#3 86334994#4 86334994#5 111552058#1 -328876706#5 -328876706#4 -328876706#1 8916935#1 88597577#2 417101702#0 417101702#1 619979102#0 619979102#1 619979102#2 619979117#0 619979117#1 619979117#2"/>
    </vehicle>
    <vehicle id="30" type="coche_estandar" depart="60.00">
        <route edges="1024170338#1 406581247#1 1236509217 84654238#0 512523366#1 674757887#2 674757887#3 674757886#1 674757886#2 674757885#1 674757876#1 1373369088 1175773365#0 1175773365#1 91181760#1 1432730526#0 27166421#2 27166421#3 27166421#6 27166421#7 27166421#8 27166421#9 620169745#0 620169745#1 620169745#4 620169745#5 133376120#1 133376120#2 133376120#3 133376120#4 -133376120#4 -133376120#3"/>
    </vehicle>
    <vehicle id="31" type="coche_estandar" depart="62.00">
        <route edges="133376120#3 133376120#4 -133376120#4 -133376120#3 -133376120#2 -133376120#1 -620169745#5 -620169745#4 -620169745#1 -620169745#0 -27166421#9 -27166421#8 461084153#2 461084153#3 461084153#4 461084153#5 461084153#6 461084153#7 461084153#8 91182069#2 1466871688#0 1466871688#2 -28843615#1 -397146712#0 -397146711 -417099350 8921866 29023785#1 397146713#0 28841117#1 1030276071 417400763#0 290080810#1 981636498#1 981636498#2 89782522#0 89782522#1 89782522#2 1024537343#0 1024537343#1 225806056#0 225806056#1 777343790#1 934194966#0 934194966#1 86334994#1 86334994#3 86334994#4 86334994#5 111552058#1 111552058#2"/>
    </vehicle>
    <vehicle id="32" type="coche_estandar" depart="64.00">
        <route edges="-88597577#2 88597577#2 417101702#0 417101702#1 619979102#0 619979102#1 619979102#2 224384018#0 224200967 133755922#1 8920734#1 224316527#1 254971068#1 254971068#2 254396709#1 254396709#2 287958606#1 287958606#2 287958606#3 287958606#4 287958606#7 287958606#8 287958606#9 414948593#1 414948593#2 414948593#3 91181759#0 91181759#1"/>
    </vehicle>
    <vehicle id="33" type="coche_estandar" depart="66.00">
        <route edges="797255352#1 797255352#2 797255352#3 1112271471#1 417094964 1112287652 397135724#0 397135724#1 397135729#1 397135729#4 397135729#5 397135729#7 397135729#8 27397539#1 100400941#1 100400941#4 100400941#5 100400941#8 144346316#1 144346316#2 144346316#3"/>
    </vehicle>
    <vehicle id="34" type="coche_estandar" depart="68.00">
        <route edges="425516626 425516628#0 425516628#1 -397146708#0 -28843615#4 -28843615#1 734004334#1 734004334#2 734004334#4 734004334#5 425516617#2 -29059494#5 -29059494#3 -29059494#2 27166466#1 27166466#2 27166466#3 27166466#6 27166466#7 1459358935#1 254297761#1 254297761#2 254297761#3"/>
    </vehicle>
    <vehicle id="35" type="coche_estandar" depart="70.00">
        <route edges="329596844#2 28841115#5 28841115#6 28841115#7 91181759#0 91181759#1 1201621437#0 1201621437#1 674757876#1 1373369088 1175773365#0 1175773365#1 91181760#1 1432730526#0 100400941#1 100400941#4 100400941#5 27166406#2 27166406#3 27166406#4 27166444#1 968937450#1 1032777735#1 1032777735#2 1032777737#1 1032777737#2 1032777737#3 1032777738 1112271472#0 1112271471#1"/>
    </vehicle>
    <vehicle id="36" type="coche_estandar" depart="72.00">
        <route edges="397146711 397146712#0 734004334#1 734004334#2 734004334#4 734004334#5 425516617#2 425516617#3 8916882#0"/>
    </vehicle>
    <vehicle id="37" type="coche_estandar" depart="74.00">
        <route edges="25372932#4 25372932#7 1459358937#1 1459358937#2 1459358937#3 461084153#0 461084153#1 461084153#2 461084153#3 461084153#4 461084153#5 461084153#6 461084153#7 461084153#8 91182069#2 1466871688#0 1466871688#2 -28843615#1 -397146712#0 -397146711 -417099350 8921866 29023785#1 397146713#0 28841117#1 1030276071"/>
    </vehicle>
    <vehicle id="38" type="coche_estandar" depart="76.00">
        <route edges="989334074#1 980893267#1 980893267#2 980893267#4 417087411#4 417087411#7 983872712#0 968937452#1 254758126#1 254758126#4 408572569#1 -100400941#8 -100400941#5 -100400941#4 -100400941#1 -1432730526#0 -91181760#1 -1175773365#1 -1175773365#0 -1373369088 -674757876#1 -1201621437#1 -1201621437#0 -91181759#1 -91181759#0 -28841115#7 -28841115#6 -28841115#5 28841115#5 28841115#6 28841115#7"/>
    </vehicle>
    <vehicle id="39" type="coche_estandar" depart="78.00">
        <route edges="-27166421#3 -27166421#2 100400941#1 100400941#4 100400941#5 -769489484#6 -769489484#5 -769489484#2 -769489484#1 -769489484#0 -1459358938#6 -1459358938#4"/>
    </vehicle>
    <vehicle id="40" type="coche_estandar" depart="80.00">
        <route edges="-28841115#2 -28841115#1 28841115#1 28841115#2 329596844#5 329596844#6 674757880#1 674757879#1 -512523366#1 -84654238#0 -1236509217 -406581247#1 -290052331#1 -781122181#1 377646101#2 1035093272#0 1035093273#1 254448250#1 254448250#2 -619979107 -225806041 417264575#2"/>
    </vehicle>
    <vehicle id="41" type="coche_estandar" depart="82.00">
        <route edges="667569398#2 667569395 417947135 417947134 28841117#1 746808418#0 746808418#1 513701212#0 513701212#1 1024170338#0 1024170338#1 -290052331#1 -781122181#1 377646101#2 1035093272#0 27400639#1 546048996#1 546048996#2 277480564#1 277480564#2 254758120#1 254758120#2"/>
    </vehicle>
    <vehicle id="42" type="coche_estandar" depart="84.00">
        <route edges="-225806041 -225806042#1 -225806042#0 -365816000#1 -365816000#0 -619979101 -225806043#1 -225806043#0 -619979111#1 -619979111#0 -228201785#2 -228201785#1 -228201785#0 -204884397#1 -204884397#0 -228196396#1 -228196396#0 228196396#0"/>
    </vehicle>
    <vehicle id="43" type="coche_estandar" depart="86.00">
        <route edges="989334074#0 989334074#1 980893267#1 980893267#2 980893267#4 417087411#4 417087411#7 983872712#0 968937452#1 254758126#1 254758126#4 408572569#1 -100400941#8 -100400941#5 -100400941#4 -100400941#1 -1432730526#0 -91181760#1 29059494#2 29059494#3 29059494#5 29059495#0 29059495#2"/>
    </vehicle>
    <vehicle id="44" type="coche_estandar" depart="88.00">
        <route edges="-1120283630 -88572965#1 111552058#1 111552058#2 255330068#0 255330068#1 255330068#2 88597544#0 88597544#1 88597544#2 144489134#0 144489134#1 144489134#4 1030287469#0 746808414 513701212#0 513701212#1"/>
    </vehicle>
    <vehicle id="45" type="coche_estandar" depart="90.00">
        <route edges="461017935#1 461017935#2 461017935#3 406581245#0 417087411#7 983872712#0 968937452#1 254758126#1 254758126#4 408572569#1 25372932#3 25372932#4 25372932#7 1459358937#1 1459358937#2 1459358937#3 461084153#0 461084153#1 461084153#2 461084153#3 461084153#4 461084153#5 461084153#6 461084153#7 461084153#8 -91182068#0 513676834#1 91182067#2 91182067#3 30029172#3"/>
    </vehicle>
    <vehicle id="46" type="coche_estandar" depart="92.00">
        <route edges="1062095135#1 1062095135#2 1062095135#3 461017935#1 461017935#2 461017935#3 406581245#0 417087411#7 983872712#0 968937452#1 254758126#1 254758126#4 408572569#1 25372932#3 25372932#4 425516617#16 425516617#17 425516617#18"/>
    </vehicle>
    <vehicle id="47" type="coche_estandar" depart="94.00">
        <route edges="-28841115#5 329596844#5 329596844#6 674757880#1 674757879#1 -512523366#1 -84654238#0 -1236509217 -406581247#1 968937446#2 968937446#3 968937447#1 968937447#2 968937447#3 254758132#1 254758132#2"/>
    </vehicle>
    <vehicle id="48" type="coche_estandar" depart="96.00">
        <route edges="254971068#2 254396709#1 254396709#2 287958606#1 287958606#2 287958606#3 287958606#4 287958606#7 287958606#8 287958606#9 414948593#1 414948593#2 414948593#3 91181759#0 91181759#1 1201621437#0 1201621437#1 674757876#1 1373369088 1175773365#0 1175773365#1 29059494#2 29059494#3 29059494#5 29059495#0 29059495#2 29059495#3 29059495#4 29059495#5 91182066#2 91182066#3 91182066#4"/>
    </vehicle>
    <vehicle id="49" type="coche_estandar" depart="98.00">
        <route edges="797255352#1 797255352#2 797255352#3 1112271471#1 417094964 1112287652 397135724#0 397135724#1 1469221528#1 1032777735#1 1032777735#2 1032777737#1 1032777737#2 1032777737#3 1032777738 1112271472#0"/>
    </vehicle>
    <vehicle id="50" type="coche_estandar" depart="100.00">
        <route edges="286003244#3 286003244#4 -721174652 -28841122#1 28841120#1 721174654 29023785#1 397146713#0 28841117#1 746808418#0 746808418#1 513701212#0 513701212#1 1024170338#0 1024170338#1 -290052331#1 -781122181#1 377646101#2 1035093272#0 1035093273#1 254448247#1 254448247#2 -85789165 -739669067#2 -739669067#1"/>
    </vehicle>
    <vehicle id="51" type="coche_estandar" depart="102.00">
        <route edges="1175773365#1 29059494#2 29059494#3 29059494#5 425516617#3 425516617#4 425516617#5 425516617#8 425516617#11 425516617#12 425516617#13 425516617#16"/>
    </vehicle>
    <vehicle id="52" type="coche_estandar" depart="104.00">
        <route edges="406946351#1 681479565#1 254306572 1052676448 779123577#0 779123577#1 513676820#0 224316527#1 254971068#1 254971068#2 254396719#2 437935727#0 254756526#1 1305214853#0 254971069#1 254971069#2 513676822#1 27054195#1 514407369#0 514407369#1 514407369#2 -514407369#2 -514407369#1"/>
    </vehicle>
    <vehicle id="53" type="coche_estandar" depart="106.00">
        <route edges="619979112#3 772972816 225806043#1 619979101 619979109#0 619979109#1 619979109#2 619979109#3 739669067#0 739669067#1 739669067#2 772766540 30832507#1 30832507#2 30832504#1 1050261012 290052331#1 406581247#1 1236509217 84654238#0 512523366#1 674757887#2 674757887#3 674757886#1 674757886#2 674757885#1 674757876#1 1373369088 1175773365#0 1175773365#1 29059494#2 29059494#3 29059494#5 29059495#0 29059495#2 29059495#3 29059495#4 29059495#5 -133376114#6 30029172#8 30029172#9"/>
    </vehicle>
    <vehicle id="54" type="coche_estandar" depart="108.00">
        <route edges="619979117#3 619979102#0 619979102#1 619979102#2 224384018#0 224200967 133755922#1 8920734#1 224316527#1 254971068#1 254971068#2 254396709#1 254396709#2 287958606#1 287958606#2 287958606#3 287958606#4 287958606#7 287958606#8 287958606#9 414948593#1 414948593#2 414948593#3 91181759#0 91181759#1 1201621437#0 1201621437#1 674757876#1 1373369088 1175773365#0 1175773365#1 29059494#2 29059494#3 29059494#5 29059495#0 29059495#2 29059495#3"/>
    </vehicle>
    <vehicle id="55" type="coche_estandar" depart="110.00">
        <route edges="-1266496430#1 133376114#1 133376114#2 133376114#6 91182066#2 8917351#2 461084153#6 461084153#7 461084153#8 91182069#2 1466871688#0 1466871688#2 461084154#1 461084154#2 461084154#3 1041363479#1 1041363479#2 513676821#0 91182062#1 91182062#2 91182062#4 417099335#0 262943780#1 425516640#0 8919215#0 8919215#1"/>
    </vehicle>
    <vehicle id="56" type="coche_estandar" depart="112.00">
        <route edges="797255352#3 1112271471#1 417094964 1112287652 397135724#0 397135724#1 397135729#1 397135729#4 397135729#5 397135729#7 397135729#8 27397539#1 27166421#2 27166421#3 27166421#6 27166421#7 461084153#2 461084153#3 461084153#4 461084153#5 461084153#6 461084153#7 461084153#8 91182069#2 1466871688#0 1466871688#2 -28843615#1 734004334#1 734004334#2 734004334#4 734004334#5"/>
    </vehicle>
    <vehicle id="57" type="coche_estandar" depart="114.00">
        <route edges="1266496430#6 288065247#1 288065247#2 769489483#1 1459358591#1 1459358938#1 1459358938#2 1459358938#3 1459358938#4 1459358938#6 769489484#0 769489484#1 769489484#2 769489484#5 769489484#6 -100400941#5 -100400941#4 -100400941#1 -1432730526#0 -91181760#1 27166466#1 27166466#2 27166466#3 27166466#6 27166466#7 1459358935#1 254297761#1 254297761#2 254297761#3 254297761#4 968937448#1 968937448#2 968937447#1 968937447#2 968937447#3 254758128#1 1035093273#1 254448247#1 254448247#2 -85789165 -739669067#2 -739669067#1 -739669067#0 -365816000#1 -365816000#0 -619979101 -225806043#1 -225806043#0 -619979111#1 -619979111#0 -228201785#2 -228201785#1 -228201785#0 -204884397#1 -204884397#0 -228196396#1 -228196396#0 619979116#0 619979116#1 619979116#2 619979116#3 -224384019#2"/>
    </vehicle>
    <vehicle id="58" type="coche_estandar" depart="116.00">
        <route edges="797255352#3 1112271471#1 417094964 1112287652 397135724#0 397135724#1 397135729#1 397135729#4 397135729#5 397135729#7 397135729#8 27397539#1 -1432730526#0 -91181760#1 -1175773365#1 -1175773365#0 -1373369088 -674757876#1 -1201621437#1 -1201621437#0 -91181759#1 -91181759#0 -414948593#3 -414948593#2 -414948593#1 -287958606#9 -287958606#8 -287958606#7 224316521#2 425516647#1 406944780#0 91182060#1"/>
    </vehicle>
    <vehicle id="59" type="coche_estandar" depart="118.00">
        <route edges="-254758120#4 -254758120#3 -254758120#2 -254758120#1 -277480564#2 -277480564#1 277480564#1"/>
    </vehicle>
    <vehicle id="60" type="coche_estandar" depart="120.00">
        <route edges="-228196396#0 228196396#0 228196396#1 204884397#0 204884397#1 228201785#0 228201785#1 228201785#2 619979112#0 619979112#1 619979112#2 619979112#3"/>
    </vehicle>
    <vehicle id="61" type="coche_estandar" depart="122.00">
        <route edges="619979113#2 619979113#3 88597544#0 88597544#1 88597544#2 144489134#0 144489134#1 184956229#1 513676826 425624293#0 111586254#1 111586254#2 111586254#3 111586254#4 721174653#0 28841120#1 721174654 -681183503 417099350 397146711 397146712#0 734004334#1 734004334#2 734004334#4 734004334#5 425516617#2 425516617#3 425516617#4 425516617#5 425516617#8 -769489484#2 -769489484#1 -769489484#0 -1459358938#6 -1459358938#4 -1459358938#3 -1459358938#2 -1459358938#1 -1459358592#0 -769489483#1 -769489483#0 -288065247#1 399142440#1 399142440#2 -399142440#2 -399142440#1"/>
    </vehicle>
    <vehicle id="62" type="coche_estandar" depart="124.00">
        <route edges="27166406#4 27166444#1 254758114#1 254758114#4 254758114#7 254758114#8 1459358940#1 1459358940#2 1459358940#3 1459358940#4 286003244#1 286003244#2 286003244#3 286003244#4 1041351160 1041351161 329596844#1"/>
    </vehicle>
    <vehicle id="63" type="coche_estandar" depart="126.00">
        <route edges="254756526#1 26769761#1 26769761#4 425516645#0 1061779494#1 425516649#0 287958606#1 287958606#2 287958606#3 287958606#4 287958606#7 287958606#8 287958606#9 414948593#1 414948593#2 414948593#3 91181759#0 91181759#1 1201621437#0 1201621437#1 674757876#1 1373369088 1175773365#0 1175773365#1 91181760#1 1432730526#0 100400941#1 100400941#4 100400941#5 100400941#8"/>
    </vehicle>
    <vehicle id="64" type="coche_estandar" depart="128.00">
        <route edges="29059495#2 29059495#3 461084153#5 461084153#6 461084153#7 461084153#8 513676832#1 -513676830#1 674757882#2 674757882#3 674757881#2 674757880#1 674757879#1 -512523366#1 -84654238#0 -1236509217 -406581247#1 -290052331#1 -781122181#1 377646101#2 1035093272#0 27400639#1 546048996#1"/>
    </vehicle>
    <vehicle id="65" type="coche_estandar" depart="130.00">
        <route edges="-771701157 -51392402#2 -51392402#1 -51392402#0 -111560680 86334994#1 86334994#3 86334994#4 86334994#5 111552058#1 111552058#2 255330068#0 255330068#1 255330068#2 88597544#0 88597544#1 88597544#2 417166168#0 417166168#1 770023605#0 224316520#1 224316520#2 254297759#1 254297759#2 397269729#1 408575054#0 397269730#1 397269730#2 397269730#3 287958606#7 287958606#8 287958606#9 414948593#1 414948593#2 414948593#3 91181759#0 91181759#1 1201621437#0 1201621437#1 674757876#1 1373369088 1175773365#0 1175773365#1 91181760#1 1432730526#0"/>
    </vehicle>
    <vehicle id="66" type="coche_estandar" depart="132.00">
        <route edges="983872712#0 968937452#1 254758126#1 254758126#4 408572569#1 -100400941#8 -100400941#5 -100400941#4 -100400941#1 -1432730526#0 -91181760#1 -1175773365#1 -1175773365#0 -1373369088 -674757876#1 -1201621437#1 -1201621437#0 -91181759#1 -91181759#0 -414948593#3 -414948593#2 -414948593#1 -287958606#9 -287958606#8 -287958606#7 224316521#2 425516647#1 406944780#0 91182062#1 91182062#2 91182062#4 417099335#0 262943780#1 425516640#0 425516640#1 425516640#2 425516638#1 425516626 425516628#0"/>
    </vehicle>
    <vehicle id="67" type="coche_estandar" depart="134.00">