<?xml version="1.0" encoding="UTF-8"?>

<!-- generated on 2026-05-20 12:17:41.094961 by randomTrips.py v1_24_0+0000-b72eb3fabc8
<configuration>
    <net-file value="sanfrancisco_v2v.net.xml"/>
    <additional-files value="vehiculos.add.xml"/>
    <route-file value="rutas_sf.rou.xml"/>
    <trip-attributes value="type=&quot;coche_estandar&quot;"/>
    <end value="1000.0"/>
    <period value="2.0"/>
</configuration>
-->

<routes xmlns:xsi="http://www.w3.org/2001/XMLSchema-instance" xsi:noNamespaceSchemaLocation="http://sumo.dlr.de/xsd/routes_file.xsd">
    <trip id="0" depart="0.00" from="425516615#1" to="-1266496430#6" type="coche_estandar"/>
    <trip id="1" depart="2.00" from="1112271466#0" to="1032777734" type="coche_estandar"/>
    <trip id="2" depart="4.00" from="619979095#1" to="461017935#1" type="coche_estandar"/>
    <trip id="3" depart="6.00" from="254756525#3" to="-133376120#1" type="coche_estandar"/>
    <trip id="4" depart="8.00" from="-91182067#2" to="28841115#2" type="coche_estandar"/>
    <trip id="5" depart="10.00" from="-133376114#2" to="-88597577#1" type="coche_estandar"/>
    <trip id="6" depart="12.00" from="425516617#2" to="328876704" type="coche_estandar"/>
    <trip id="7" depart="14.00" from="-945294696#0" to="406581245#0" type="coche_estandar"/>
    <trip id="8" depart="16.00" from="686250326#2" to="-111586254#2" type="coche_estandar"/>
    <trip id="9" depart="18.00" from="680243311#1" to="502795940#1" type="coche_estandar"/>
    <trip id="10" depart="20.00" from="144489136#1" to="-619979102#1" type="coche_estandar"/>
    <trip id="11" depart="22.00" from="91182067#2" to="1459358938#2" type="coche_estandar"/>
    <trip id="12" depart="24.00" from="-27166421#7" to="-287958606#3" type="coche_estandar"/>
    <trip id="13" depart="26.00" from="746808418#1" to="408575054#0" type="coche_estandar"/>
    <trip id="14" depart="28.00" from="681479565#1" to="546048996#1" type="coche_estandar"/>
    <trip id="15" depart="30.00" from="29059494#3" to="968937447#1" type="coche_estandar"/>
    <trip id="16" depart="32.00" from="721174654" to="417099350" type="coche_estandar"/>
    <trip id="17" depart="34.00" from="770522137#1" to="397146713#0" type="coche_estandar"/>
    <trip id="18" depart="36.00" from="502795940#5" to="-1459358938#3" type="coche_estandar"/>
    <trip id="19" depart="38.00" from="1024170338#0" to="1266496430#2" type="coche_estandar"/>
    <trip id="20" depart="40.00" from="-254396719#2" to="1035093272#0" type="coche_estandar"/>
    <trip id="21" depart="42.00" from="-287958606#2" to="111586254#4" type="coche_estandar"/>
    <trip id="22" depart="44.00" from="417400763#0" to="224316520#2" type="coche_estandar"/>
    <trip id="23" depart="46.00" from="204884387#1" to="100400941#4" type="coche_estandar"/>
    <trip id="24" depart="48.00" from="1062095135#1" to="8922229#1" type="coche_estandar"/>
    <trip id="25" depart="50.00" from="-620169745#0" to="542267688#1" type="coche_estandar"/>
    <trip id="26" depart="52.00" from="-619979101" to="225847514#0" type="coche_estandar"/>
    <trip id="27" depart="54.00" from="981636498#1" to="425516617#17" type="coche_estandar"/>
    <trip id="28" depart="56.00" from="328876706#1" to="461084153#4" type="coche_estandar"/>
    <trip id="29" depart="58.00" from="746808396" to="619979117#2" type="coche_estandar"/>
    <trip id="30" depart="60.00" from="1024170338#1" to="-133376120#3" type="coche_estandar"/>
    <trip id="31" depart="62.00" from="133376120#3" to="111552058#2" type="coche_estandar"/>
    <trip id="32" depart="64.00" from="-88597577#2" to="91181759#1" type="coche_estandar"/>
    <trip id="33" depart="66.00" from="797255352#1" to="144346316#3" type="coche_estandar"/>
    <trip id="34" depart="68.00" from="425516626" to="254297761#3" type="coche_estandar"/>
    <trip id="35" depart="70.00" from="329596844#2" to="1112271471#1" type="coche_estandar"/>
    <trip id="36" depart="72.00" from="397146711" to="8916882#0" type="coche_estandar"/>
    <trip id="37" depart="74.00" from="25372932#4" to="1030276071" type="coche_estandar"/>
    <trip id="38" depart="76.00" from="989334074#1" to="28841115#7" type="coche_estandar"/>
    <trip id="39" depart="78.00" from="-27166421#3" to="-1459358938#4" type="coche_estandar"/>
    <trip id="40" depart="80.00" from="-28841115#2" to="417264575#2" type="coche_estandar"/>
    <trip id="41" depart="82.00" from="667569398#2" to="254758120#2" type="coche_estandar"/>
    <trip id="42" depart="84.00" from="-225806041" to="228196396#0" type="coche_estandar"/>
    <trip id="43" depart="86.00" from="989334074#0" to="29059495#2" type="coche_estandar"/>
    <trip id="44" depart="88.00" from="-1120283630" to="513701212#1" type="coche_estandar"/>
    <trip id="45" depart="90.00" from="461017935#1" to="30029172#3" type="coche_estandar"/>
    <trip id="46" depart="92.00" from="1062095135#1" to="425516617#18" type="coche_estandar"/>
    <trip id="47" depart="94.00" from="-28841115#5" to="254758132#2" type="coche_estandar"/>
    <trip id="48" depart="96.00" from="254971068#2" to="91182066#4" type="coche_estandar"/>
    <trip id="49" depart="98.00" from="797255352#1" to="1112271472#0" type="coche_estandar"/>
    <trip id="50" depart="100.00" from="286003244#3" to="-739669067#1" type="coche_estandar"/>
    <trip id="51" depart="102.00" from="1175773365#1" to="425516617#16" type="coche_estandar"/>
    <trip id="52" depart="104.00" from="406946351#1" to="-514407369#1" type="coche_estandar"/>
    <trip id="53" depart="106.00" from="619979112#3" to="30029172#9" type="coche_estandar"/>
    <trip id="54" depart="108.00" from="619979117#3" to="29059495#3" type="coche_estandar"/>
    <trip id="55" depart="110.00" from="-1266496430#1" to="8919215#1" type="coche_estandar"/>
    <trip id="56" depart="112.00" from="797255352#3" to="734004334#5" type="coche_estandar"/>
    <trip id="57" depart="114.00" from="1266496430#6" to="-224384019#2" type="coche_estandar"/>
    <trip id="58" depart="116.00" from="797255352#3" to="91182060#1" type="coche_estandar"/>
    <trip id="59" depart="118.00" from="-254758120#4" to="277480564#1" type="coche_estandar"/>
    <trip id="60" depart="120.00" from="-228196396#0" to="619979112#3" type="coche_estandar"/>
    <trip id="61" depart="122.00" from="619979113#2" to="-399142440#1" type="coche_estandar"/>
    <trip id="62" depart="124.00" from="27166406#4" to="329596844#1" type="coche_estandar"/>
    <trip id="63" depart="126.00" from="254756526#1" to="100400941#8" type="coche_estandar"/>
    <trip id="64" depart="128.00" from="29059495#2" to="546048996#1" type="coche_estandar"/>
    <trip id="65" depart="130.00" from="-771701157" to="1432730526#0" type="coche_estandar"/>
    <trip id="66" depart="132.00" from="983872712#0" to="425516628#0" type="coche_estandar"/>
    <trip id="67" depart="134.00" from="254758125#3" to="28843615#4" type="coche_estandar"/>
    <trip id="68" depart="136.00" from="-29059494#5" to="1032777735#1" type="coche_estandar"/>
    <trip id="69" depart="138.00" from="144489134#4" to="399142440#5" type="coche_estandar"/>
    <trip id="70" depart="140.00" from="1024537343#0" to="1030276935#1" type="coche_estandar"/>
    <trip id="71" depart="142.00" from="-228196396#1" to="417947135" type="coche_estandar"/>
    <trip id="72" depart="144.00" from="1024170338#1" to="8917453#2" type="coche_estandar"/>
    <trip id="73" depart="146.00" from="770023605#0" to="-25372932#3" type="coche_estandar"/>
    <trip id="74" depart="148.00" from="1032777735#1" to="425516648#2" type="coche_estandar"/>
    <trip id="75" depart="150.00" from="-8918970" to="-408586848" type="coche_estandar"/>
    <trip id="76" depart="152.00" from="8921866" to="397146707#1" type="coche_estandar"/>
    <trip id="77" depart="154.00" from="27054209#2" to="627329159#0" type="coche_estandar"/>
    <trip id="78" depart="156.00" from="-277480424#2" to="254758128#1" type="coche_estandar"/>
    <trip id="79" depart="158.00" from="254756526#1" to="27166421#2" type="coche_estandar"/>
    <trip id="80" depart="160.00" from="514407369#1" to="437935727#0" type="coche_estandar"/>
    <trip id="81" depart="162.00" from="980893267#1" to="-287958606#4" type="coche_estandar"/>
    <trip id="82" depart="164.00" from="254297759#2" to="1459358938#4" type="coche_estandar"/>
    <trip id="83" depart="166.00" from="770522137#1" to="1050261012" type="coche_estandar"/>
    <trip id="84" depart="168.00" from="-739669067#1" to="255330068#2" type="coche_estandar"/>
    <trip id="85" depart="170.00" from="254756525#1" to="111586257#1" type="coche_estandar"/>
    <trip id="86" depart="172.00" from="1041351162" to="8918656#3" type="coche_estandar"/>
    <trip id="87" depart="174.00" from="254758131#1" to="770522137#6" type="coche_estandar"/>
    <trip id="88" depart="176.00" from="30029172#9" to="-204884387#0" type="coche_estandar"/>
    <trip id="89" depart="178.00" from="989334074#4" to="739669067#1" type="coche_estandar"/>
    <trip id="90" depart="180.00" from="254297759#1" to="-225806041" type="coche_estandar"/>
    <trip id="91" depart="182.00" from="254971069#2" to="254758120#3" type="coche_estandar"/>
    <trip id="92" depart="184.00" from="91182067#2" to="981636499#3" type="coche_estandar"/>
    <trip id="93" depart="186.00" from="30832507#2" to="513701211#2" type="coche_estandar"/>
    <trip id="94" depart="188.00" from="-513676826" to="133376120#1" type="coche_estandar"/>
    <trip id="95" depart="190.00" from="29059495#5" to="619979109#1" type="coche_estandar"/>
    <trip id="96" depart="192.00" from="-204884397#1" to="399138118#2" type="coche_estandar"/>
    <trip id="97" depart="194.00" from="286003244#5" to="769489484#2" type="coche_estandar"/>
    <trip id="98" depart="196.00" from="-51392402#1" to="934194966#0" type="coche_estandar"/>
    <trip id="99" depart="198.00" from="-254396719#2" to="-769489484#1" type="coche_estandar"/>
    <trip id="100" depart="200.00" from="399138118#2" to="440486297#1" type="coche_estandar"/>
    <trip id="101" depart="202.00" from="1030287469#0" to="-328876706#5" type="coche_estandar"/>
    <trip id="102" depart="204.00" from="399138118#2" to="417101702#0" type="coche_estandar"/>
    <trip id="103" depart="206.00" from="254466695#2" to="399138118#1" type="coche_estandar"/>
    <trip id="104" depart="208.00" from="28841121#1" to="8921608#1" type="coche_estandar"/>
    <trip id="105" depart="210.00" from="-85789165" to="513676834#1" type="coche_estandar"/>
    <trip id="106" depart="212.00" from="1032777735#2" to="254297761#3" type="coche_estandar"/>
    <trip id="107" depart="214.00" from="425516647#1" to="133376120#4" type="coche_estandar"/>
    <trip id="108" depart="216.00" from="-228201785#1" to="27054195#1" type="coche_estandar"/>
    <trip id="109" depart="218.00" from="989334074#3" to="983872712#0" type="coche_estandar"/>
    <trip id="110" depart="220.00" from="84734271#1" to="85789166#1" type="coche_estandar"/>
    <trip id="111" depart="222.00" from="204884387#0" to="-619979107" type="coche_estandar"/>
    <trip id="112" depart="224.00" from="734004334#2" to="502795940#9" type="coche_estandar"/>
    <trip id="113" depart="226.00" from="425516617#8" to="-111586254#3" type="coche_estandar"/>
    <trip id="114" depart="228.00" from="706527718#0" to="133376120#4" type="coche_estandar"/>
    <trip id="115" depart="230.00" from="-399142440#2" to="-29059494#5" type="coche_estandar"/>
    <trip id="116" depart="232.00" from="-287958606#9" to="359267151#0" type="coche_estandar"/>
    <trip id="117" depart="234.00" from="1112250557#0" to="414948593#1" type="coche_estandar"/>
    <trip id="118" depart="236.00" from="513676832#1" to="-91181759#1" type="coche_estandar"/>
    <trip id="119" depart="238.00" from="417166168#1" to="1112271472#0" type="coche_estandar"/>
    <trip id="120" depart="240.00" from="27166466#7" to="8917453#2" type="coche_estandar"/>
    <trip id="121" depart="242.00" from="746808418#0" to="-277480424#2" type="coche_estandar"/>
    <trip id="122" depart="244.00" from="254756526#1" to="111586254#3" type="coche_estandar"/>
    <trip id="123" depart="246.00" from="-100400941#8" to="619979116#2" type="coche_estandar"/>
    <trip id="124" depart="248.00" from="417947134" to="1112271467#1" type="coche_estandar"/>
    <trip id="125" depart="250.00" from="619979102#1" to="329596844#5" type="coche_estandar"/>
    <trip id="126" depart="252.00" from="254758114#8" to="-1120283629#0" type="coche_estandar"/>
    <trip id="127" depart="254.00" from="-25372932#3" to="86334994#4" type="coche_estandar"/>
    <trip id="128" depart="256.00" from="8916882#3" to="328876704" type="coche_estandar"/>
    <trip id="129" depart="258.00" from="734004334#4" to="397269730#3" type="coche_estandar"/>
    <trip id="130" depart="260.00" from="-437935727#0" to="-399142440#1" type="coche_estandar"/>
    <trip id="131" depart="262.00" from="1305214853#0" to="8916882#1" type="coche_estandar"/>
    <trip id="132" depart="264.00" from="88597577#2" to="100400941#4" type="coche_estandar"/>
    <trip id="133" depart="266.00" from="1041351161" to="-288065247#1" type="coche_estandar"/>
    <trip id="134" depart="268.00" from="620169744#3" to="86334994#5" type="coche_estandar"/>
    <trip id="135" depart="270.00" from="254297761#4" to="417101702#1" type="coche_estandar"/>
    <trip id="136" depart="272.00" from="-513676826" to="8919215#1" type="coche_estandar"/>
    <trip id="137" depart="274.00" from="770522137#6" to="968937448#1" type="coche_estandar"/>
    <trip id="138" depart="276.00" from="-133376114#1" to="619979095#2" type="coche_estandar"/>
    <trip id="139" depart="278.00" from="144346316#4" to="8919887#1" type="coche_estandar"/>
    <trip id="140" depart="280.00" from="674757886#1" to="771701157" type="coche_estandar"/>
    <trip id="141" depart="282.00" from="620169771#4" to="-28841115#7" type="coche_estandar"/>
    <trip id="142" depart="284.00" from="100400941#4" to="706527718#7" type="coche_estandar"/>
    <trip id="143" depart="286.00" from="258613674#1" to="136409576#1" type="coche_estandar"/>
    <trip id="144" depart="288.00" from="674757880#1" to="1032777737#2" type="coche_estandar"/>
    <trip id="145" depart="290.00" from="-1305214853#0" to="-84654238#0" type="coche_estandar"/>
    <trip id="146" depart="292.00" from="1432730526#0" to="772766540" type="coche_estandar"/>
    <trip id="147" depart="294.00" from="425516616#2" to="254306572" type="coche_estandar"/>
    <trip id="148" depart="296.00" from="968937452#1" to="30029172#3" type="coche_estandar"/>
    <trip id="149" depart="298.00" from="89782522#1" to="-29059494#5" type="coche_estandar"/>
    <trip id="150" depart="300.00" from="968937446#3" to="-739669067#1" type="coche_estandar"/>
    <trip id="151" depart="302.00" from="934194966#1" to="1112996372#1" type="coche_estandar"/>
    <trip id="152" depart="304.00" from="-28841115#1" to="254758132#2" type="coche_estandar"/>
    <trip id="153" depart="306.00" from="514407369#0" to="144346316#2" type="coche_estandar"/>
    <trip id="154" depart="308.00" from="225806041" to="397146713#0" type="coche_estandar"/>
    <trip id="155" depart="310.00" from="1041363479#1" to="513676822#1" type="coche_estandar"/>
    <trip id="156" depart="312.00" from="-100400941#4" to="8919058#0" type="coche_estandar"/>
    <trip id="157" depart="314.00" from="29059495#0" to="513701212#0" type="coche_estandar"/>
    <trip id="158" depart="316.00" from="619979102#2" to="425516648#3" type="coche_estandar"/>
    <trip id="159" depart="318.00" from="1483073238#0" to="-228201785#2" type="coche_estandar"/>
    <trip id="160" depart="320.00" from="425516638#1" to="1459358673#2" type="coche_estandar"/>
    <trip id="161" depart="322.00" from="133376120#2" to="766116625#2" type="coche_estandar"/>
    <trip id="162" depart="324.00" from="513676834#1" to="133376120#4" type="coche_estandar"/>
    <trip id="163" depart="326.00" from="133376114#1" to="254466695#1" type="coche_estandar"/>
    <trip id="164" depart="328.00" from="254297759#2" to="133376114#6" type="coche_estandar"/>
    <trip id="165" depart="330.00" from="-397135720" to="254758120#1" type="coche_estandar"/>
    <trip id="166" depart="332.00" from="89782522#2" to="461017935#2" type="coche_estandar"/>
    <trip id="167" depart="334.00" from="8916882#2" to="417099335#0" type="coche_estandar"/>
    <trip id="168" depart="336.00" from="1201621437#1" to="328876706#5" type="coche_estandar"/>
    <trip id="169" depart="338.00" from="-100400941#1" to="1236509217" type="coche_estandar"/>
    <trip id="170" depart="340.00" from="254758115#2" to="397269730#1" type="coche_estandar"/>
    <trip id="171" depart="342.00" from="425516626" to="27166406#4" type="coche_estandar"/>
    <trip id="172" depart="344.00" from="27166406#2" to="8916882#3" type="coche_estandar"/>
    <trip id="173" depart="346.00" from="674757881#2" to="-688508137#1" type="coche_estandar"/>
    <trip id="174" depart="348.00" from="-254758120#3" to="28841123#2" type="coche_estandar"/>
    <trip id="175" depart="350.00" from="417166168#0" to="1459358937#3" type="coche_estandar"/>
    <trip id="176" depart="352.00" from="706527718#2" to="619979110#0" type="coche_estandar"/>
    <trip id="177" depart="354.00" from="425516648#1" to="1032777735#1" type="coche_estandar"/>
    <trip id="178" depart="356.00" from="-769489484#5" to="-1266496430#6" type="coche_estandar"/>
    <trip id="179" depart="358.00" from="1032777740#0" to="27166466#2" type="coche_estandar"/>
    <trip id="180" depart="360.00" from="254448247#1" to="417947134" type="coche_estandar"/>
    <trip id="181" depart="362.00" from="-769489483#0" to="47172306#4" type="coche_estandar"/>
    <trip id="182" depart="364.00" from="277480563#1" to="1041363479#2" type="coche_estandar"/>
    <trip id="183" depart="366.00" from="425516628#0" to="-111586254#1" type="coche_estandar"/>
    <trip id="184" depart="368.00" from="619979109#2" to="619979116#1" type="coche_estandar"/>
    <trip id="185" depart="370.00" from="-287958606#9" to="254758120#6" type="coche_estandar"/>
    <trip id="186" depart="372.00" from="-674757876#1" to="91182067#3" type="coche_estandar"/>
    <trip id="187" depart="374.00" from="28841115#6" to="-204884387#0" type="coche_estandar"/>
    <trip id="188" depart="376.00" from="1041351161" to="766116626#1" type="coche_estandar"/>
    <trip id="189" depart="378.00" from="255330068#0" to="674757887#2" type="coche_estandar"/>
    <trip id="190" depart="380.00" from="399142440#1" to="91182062#2" type="coche_estandar"/>
    <trip id="191" depart="382.00" from="513676833#1" to="28841115#1" type="coche_estandar"/>
    <trip id="192" depart="384.00" from="721726242#0" to="328876706#5" type="coche_estandar"/>
    <trip id="193" depart="386.00" from="88597577#1" to="619979108#1" type="coche_estandar"/>
    <trip id="194" depart="388.00" from="27166406#3" to="1112271465" type="coche_estandar"/>
    <trip id="195" depart="390.00" from="1035093273#1" to="425516617#13" type="coche_estandar"/>
    <trip id="196" depart="392.00" from="619979113#2" to="29023741#0" type="coche_estandar"/>
    <trip id="197" depart="394.00" from="417101702#0" to="111586254#1" type="coche_estandar"/>
    <trip id="198" depart="396.00" from="-25372932#7" to="1201621437#1" type="coche_estandar"/>
    <trip id="199" depart="398.00" from="1111450276" to="144346316#8" type="coche_estandar"/>
    <trip id="200" depart="400.00" from="29059495#3" to="-417101702#1" type="coche_estandar"/>
    <trip id="201" depart="402.00" from="1024537343#1" to="47172306#1" type="coche_estandar"/>
    <trip id="202" depart="404.00" from="502795940#6" to="-225847514#0" type="coche_estandar"/>
    <trip id="203" depart="406.00" from="254297764#1" to="30832507#1" type="coche_estandar"/>
    <trip id="204" depart="408.00" from="254448250#1" to="-91182068#0" type="coche_estandar"/>
    <trip id="205" depart="410.00" from="254466695#3" to="8917453#2" type="coche_estandar"/>
    <trip id="206" depart="412.00" from="397146708#0" to="47172306#4" type="coche_estandar"/>
    <trip id="207" depart="414.00" from="769489484#5" to="619979114" type="coche_estandar"/>
    <trip id="208" depart="416.00" from="1459358938#2" to="619979110#2" type="coche_estandar"/>
    <trip id="209" depart="418.00" from="769489484#0" to="91182066#4" type="coche_estandar"/>
    <trip id="210" depart="420.00" from="254466695#2" to="619979109#1" type="coche_estandar"/>
    <trip id="211" depart="422.00" from="30029172#14" to="408575054#0" type="coche_estandar"/>
    <trip id="212" depart="424.00" from="-945294696#0" to="1030276071" type="coche_estandar"/>
    <trip id="213" depart="426.00" from="254758124#1" to="-133376114#6" type="coche_estandar"/>
    <trip id="214" depart="428.00" from="144489134#0" to="461017935#3" type="coche_estandar"/>
    <trip id="215" depart="430.00" from="254297761#2" to="-620169745#5" type="coche_estandar"/>
    <trip id="216" depart="432.00" from="26769761#7" to="-399142440#1" type="coche_estandar"/>
    <trip id="217" depart="434.00" from="417099335#0" to="-133376114#1" type="coche_estandar"/>
    <trip id="218" depart="436.00" from="228196396#1" to="397135729#5" type="coche_estandar"/>
    <trip id="219" depart="438.00" from="-133376114#6" to="425516617#2" type="coche_estandar"/>
    <trip id="220" depart="440.00" from="-399142440#4" to="27054209#1" type="coche_estandar"/>
    <trip id="221" depart="442.00" from="-1494651674" to="225847514#0" type="coche_estandar"/>
    <trip id="222" depart="444.00" from="619979112#2" to="225847514#0" type="coche_estandar"/>
    <trip id="223" depart="446.00" from="619979109#3" to="734004334#5" type="coche_estandar"/>
    <trip id="224" depart="448.00" from="1041363477#0" to="-254971068#1" type="coche_estandar"/>
    <trip id="225" depart="450.00" from="-1266496430#1" to="30029172#9" type="coche_estandar"/>
    <trip id="226" depart="452.00" from="989334074#4" to="1483073238#1" type="coche_estandar"/>
    <trip id="227" depart="454.00" from="425516617#2" to="620169745#1" type="coche_estandar"/>
    <trip id="228" depart="456.00" from="425516617#4" to="619979110#3" type="coche_estandar"/>
    <trip id="229" depart="458.00" from="91182062#2" to="-88597577#1" type="coche_estandar"/>
    <trip id="230" depart="460.00" from="-1266496430#2" to="-514407369#1" type="coche_estandar"/>
    <trip id="231" depart="462.00" from="-365816000#1" to="425516648#2" type="coche_estandar"/>
    <trip id="232" depart="464.00" from="329596844#6" to="1024537343#1" type="coche_estandar"/>
    <trip id="233" depart="466.00" from="47172306#3" to="619979115#0" type="coche_estandar"/>
    <trip id="234" depart="468.00" from="-619979107" to="414948594#2" type="coche_estandar"/>
    <trip id="235" depart="470.00" from="619979108#3" to="-29059494#3" type="coche_estandar"/>
    <trip id="236" depart="472.00" from="706527718#2" to="935446073#10" type="coche_estandar"/>
    <trip id="237" depart="474.00" from="-288065247#1" to="-1305214853#0" type="coche_estandar"/>
    <trip id="238" depart="476.00" from="133376114#6" to="461017935#2" type="coche_estandar"/>
    <trip id="239" depart="478.00" from="91182067#3" to="254297761#4" type="coche_estandar"/>
    <trip id="240" depart="480.00" from="513676826" to="-254396719#2" type="coche_estandar"/>
    <trip id="241" depart="482.00" from="461084153#5" to="417166168#1" type="coche_estandar"/>
    <trip id="242" depart="484.00" from="-287958606#2" to="619979116#3" type="coche_estandar"/>
    <trip id="243" depart="486.00" from="-29059494#5" to="968937453#1" type="coche_estandar"/>
    <trip id="244" depart="488.00" from="620169745#1" to="1469221528#1" type="coche_estandar"/>
    <trip id="245" depart="490.00" from="254758115#1" to="224384019#1" type="coche_estandar"/>
    <trip id="246" depart="492.00" from="287958606#3" to="1459358940#1" type="coche_estandar"/>
    <trip id="247" depart="494.00" from="-287958606#8" to="934194966#0" type="coche_estandar"/>
    <trip id="248" depart="496.00" from="417400763#0" to="734004334#1" type="coche_estandar"/>
    <trip id="249" depart="498.00" from="502795940#9" to="254971055#0" type="coche_estandar"/>
    <trip id="250" depart="500.00" from="598020856#1" to="935446073#2" type="coche_estandar"/>
    <trip id="251" depart="502.00" from="1062095136#0" to="686250327#2" type="coche_estandar"/>
    <trip id="252" depart="504.00" from="29059495#0" to="277480425#1" type="coche_estandar"/>
    <trip id="253" depart="506.00" from="254758120#4" to="546048996#2" type="coche_estandar"/>
    <trip id="254" depart="508.00" from="1062095135#2" to="769489484#1" type="coche_estandar"/>
    <trip id="255" depart="510.00" from="721726242#0" to="-27166421#6" type="coche_estandar"/>
    <trip id="256" depart="512.00" from="850158700#1" to="1041363479#2" type="coche_estandar"/>
    <trip id="257" depart="514.00" from="26769761#10" to="417087411#1" type="coche_estandar"/>
    <trip id="258" depart="516.00" from="-8917351#2" to="674757885#1" type="coche_estandar"/>
    <trip id="259" depart="518.00" from="144489136#1" to="86334994#1" type="coche_estandar"/>
    <trip id="260" depart="520.00" from="47172320#2" to="111586254#3" type="coche_estandar"/>
    <trip id="261" depart="522.00" from="-1120283629#0" to="91182062#1" type="coche_estandar"/>
    <trip id="262" depart="524.00" from="-254758120#4" to="513701212#1" type="coche_estandar"/>
    <trip id="263" depart="526.00" from="27166466#7" to="619979112#1" type="coche_estandar"/>
    <trip id="264" depart="528.00" from="461084153#5" to="425516617#4" type="coche_estandar"/>
    <trip id="265" depart="530.00" from="27400639#1" to="674757880#1" type="coche_estandar"/>
    <trip id="266" depart="532.00" from="-27166421#7" to="1030276936#1" type="coche_estandar"/>
    <trip id="267" depart="534.00" from="461084153#6" to="136409577#1" type="coche_estandar"/>
    <trip id="268" depart="536.00" from="397146707#2" to="27166444#1" type="coche_estandar"/>
    <trip id="269" depart="538.00" from="290080810#1" to="254758120#6" type="coche_estandar"/>
    <trip id="270" depart="540.00" from="619979108#1" to="1459358673#2" type="coche_estandar"/>
    <trip id="271" depart="542.00" from="502795940#10" to="111560679#4" type="coche_estandar"/>
    <trip id="272" depart="544.00" from="1041357578#0" to="-365816000#0" type="coche_estandar"/>
    <trip id="273" depart="546.00" from="-742976231#1" to="-328876706#5" type="coche_estandar"/>
    <trip id="274" depart="548.00" from="29059494#3" to="619979113#0" type="coche_estandar"/>
    <trip id="275" depart="550.00" from="-721726242#0" to="1024170338#1" type="coche_estandar"/>
    <trip id="276" depart="552.00" from="27166466#1" to="514407369#0" type="coche_estandar"/>
    <trip id="277" depart="554.00" from="968937448#2" to="29059494#2" type="coche_estandar"/>
    <trip id="278" depart="556.00" from="111560679#1" to="-287958606#8" type="coche_estandar"/>
    <trip id="279" depart="558.00" from="-769489483#0" to="1032777737#2" type="coche_estandar"/>
    <trip id="280" depart="560.00" from="-688508137#1" to="-1175773365#1" type="coche_estandar"/>
    <trip id="281" depart="562.00" from="29023785#1" to="111586254#1" type="coche_estandar"/>
    <trip id="282" depart="564.00" from="968937447#3" to="359267151#0" type="coche_estandar"/>
    <trip id="283" depart="566.00" from="47172305#0" to="-397146712#0" type="coche_estandar"/>
    <trip id="284" depart="568.00" from="772972816" to="286003244#3" type="coche_estandar"/>
    <trip id="285" depart="570.00" from="779123577#1" to="397146708#0" type="coche_estandar"/>
    <trip id="286" depart="572.00" from="27054196#1" to="254971067#4" type="coche_estandar"/>
    <trip id="287" depart="574.00" from="-721174653#0" to="-204884387#1" type="coche_estandar"/>
    <trip id="288" depart="576.00" from="91181758#2" to="27166466#7" type="coche_estandar"/>
    <trip id="289" depart="578.00" from="706532923#0" to="254396709#1" type="coche_estandar"/>
    <trip id="290" depart="580.00" from="-228201785#2" to="417400763#0" type="coche_estandar"/>
    <trip id="291" depart="582.00" from="329596844#5" to="133755922#1" type="coche_estandar"/>
    <trip id="292" depart="584.00" from="981636499#3" to="-328876706#4" type="coche_estandar"/>
    <trip id="293" depart="586.00" from="619979113#1" to="414948593#3" type="coche_estandar"/>
    <trip id="294" depart="588.00" from="667569395" to="1032777735#2" type="coche_estandar"/>
    <trip id="295" depart="590.00" from="28841121#1" to="258613674#1" type="coche_estandar"/>
    <trip id="296" depart="592.00" from="981636498#1" to="136409576#1" type="coche_estandar"/>
    <trip id="297" depart="594.00" from="417094964" to="417087411#1" type="coche_estandar"/>
    <trip id="298" depart="596.00" from="619979102#0" to="91182060#1" type="coche_estandar"/>
    <trip id="299" depart="598.00" from="-88559669#1" to="100400941#5" type="coche_estandar"/>
    <trip id="300" depart="600.00" from="-620169745#4" to="-254396709#2" type="coche_estandar"/>
    <trip id="301" depart="602.00" from="-100400941#5" to="258613674#1" type="coche_estandar"/>
    <trip id="302" depart="604.00" from="399138118#1" to="1266496430#6" type="coche_estandar"/>
    <trip id="303" depart="606.00" from="1024537343#1" to="513676820#0" type="coche_estandar"/>
    <trip id="304" depart="608.00" from="502795940#10" to="26769761#1" type="coche_estandar"/>
    <trip id="305" depart="610.00" from="461084153#2" to="8918970" type="coche_estandar"/>
    <trip id="306" depart="612.00" from="627329159#0" to="417166165#1" type="coche_estandar"/>
    <trip id="307" depart="614.00" from="254758114#4" to="30832507#2" type="coche_estandar"/>
    <trip id="308" depart="616.00" from="712555565#3" to="-25372932#4" type="coche_estandar"/>
    <trip id="309" depart="618.00" from="-619979102#2" to="136409577#2" type="coche_estandar"/>
    <trip id="310" depart="620.00" from="619979109#0" to="397145821#1" type="coche_estandar"/>